


                                __________________________________________
                               |                                          |
                               | NUMERICAL ELECTROMAGNETICS CODE (nec2++) |
                               | Translated to 'C++' in Double Precision  |
                               |              Version 1.0.4 [2004-11-23]              |
                               |__________________________________________|



                               ---------------- COMMENTS ----------------
                                Dipole
                                Start of geometry



                                -------- STRUCTURE SPECIFICATION --------
                                COORDINATES MUST BE INPUT IN
                                METERS OR BE SCALED TO METERS
                                BEFORE STRUCTURE INPUT IS ENDED
  WIRE                                                                                 SEG FIRST  LAST  TAG
   No:        X1         Y1         Z1         X2         Y2         Z2       RADIUS   No:   SEG   SEG  No:

     1      0.0000     0.0000    -0.2500     0.0000     0.0000     0.2500     0.0025  1001     1  1001    1

     TOTAL SEGMENTS USED: 1001   SEGMENTS IN A SYMMETRIC CELL: 1001   SYMMETRY FLAG: 0


                               ---------- SEGMENTATION DATA ----------
                                        COORDINATES IN METERS
                            I+ AND I- INDICATE THE SEGMENTS BEFORE AND AFTER I

   SEG    COORDINATES OF SEGM CENTER     SEGM    ORIENTATION ANGLES    WIRE    CONNECTION DATA   TAG
   No:       X         Y         Z      LENGTH     ALPHA      BETA    RADIUS    I-     I    I+   NO:
     1    0.0000    0.0000   -0.2498    0.0005   90.0000    0.0000    0.0025     0     1     2     1
     2    0.0000    0.0000   -0.2493    0.0005   90.0000    0.0000    0.0025     1     2     3     1
     3    0.0000    0.0000   -0.2488    0.0005   90.0000    0.0000    0.0025     2     3     4     1
     4    0.0000    0.0000   -0.2483    0.0005   90.0000    0.0000    0.0025     3     4     5     1
     5    0.0000    0.0000   -0.2478    0.0005   90.0000    0.0000    0.0025     4     5     6     1
     6    0.0000    0.0000   -0.2473    0.0005   90.0000    0.0000    0.0025     5     6     7     1
     7    0.0000    0.0000   -0.2468    0.0005   90.0000    0.0000    0.0025     6     7     8     1
     8    0.0000    0.0000   -0.2463    0.0005   90.0000    0.0000    0.0025     7     8     9     1
     9    0.0000    0.0000   -0.2458    0.0005   90.0000    0.0000    0.0025     8     9    10     1
    10    0.0000    0.0000   -0.2453    0.0005   90.0000    0.0000    0.0025     9    10    11     1
    11    0.0000    0.0000   -0.2448    0.0005   90.0000    0.0000    0.0025    10    11    12     1
    12    0.0000    0.0000   -0.2443    0.0005   90.0000    0.0000    0.0025    11    12    13     1
    13    0.0000    0.0000   -0.2438    0.0005   90.0000    0.0000    0.0025    12    13    14     1
    14    0.0000    0.0000   -0.2433    0.0005   90.0000    0.0000    0.0025    13    14    15     1
    15    0.0000    0.0000   -0.2428    0.0005   90.0000    0.0000    0.0025    14    15    16     1
    16    0.0000    0.0000   -0.2423    0.0005   90.0000    0.0000    0.0025    15    16    17     1
    17    0.0000    0.0000   -0.2418    0.0005   90.0000    0.0000    0.0025    16    17    18     1
    18    0.0000    0.0000   -0.2413    0.0005   90.0000    0.0000    0.0025    17    18    19     1
    19    0.0000    0.0000   -0.2408    0.0005   90.0000    0.0000    0.0025    18    19    20     1
    20    0.0000    0.0000   -0.2403    0.0005   90.0000    0.0000    0.0025    19    20    21     1
    21    0.0000    0.0000   -0.2398    0.0005   90.0000    0.0000    0.0025    20    21    22     1
    22    0.0000    0.0000   -0.2393    0.0005   90.0000    0.0000    0.0025    21    22    23     1
    23    0.0000    0.0000   -0.2388    0.0005   90.0000    0.0000    0.0025    22    23    24     1
    24    0.0000    0.0000   -0.2383    0.0005   90.0000    0.0000    0.0025    23    24    25     1
    25    0.0000    0.0000   -0.2378    0.0005   90.0000    0.0000    0.0025    24    25    26     1
    26    0.0000    0.0000   -0.2373    0.0005   90.0000    0.0000    0.0025    25    26    27     1
    27    0.0000    0.0000   -0.2368    0.0005   90.0000    0.0000    0.0025    26    27    28     1
    28    0.0000    0.0000   -0.2363    0.0005   90.0000    0.0000    0.0025    27    28    29     1
    29    0.0000    0.0000   -0.2358    0.0005   90.0000    0.0000    0.0025    28    29    30     1
    30    0.0000    0.0000   -0.2353    0.0005   90.0000    0.0000    0.0025    29    30    31     1
    31    0.0000    0.0000   -0.2348    0.0005   90.0000    0.0000    0.0025    30    31    32     1
    32    0.0000    0.0000   -0.2343    0.0005   90.0000    0.0000    0.0025    31    32    33     1
    33    0.0000    0.0000   -0.2338    0.0005   90.0000    0.0000    0.0025    32    33    34     1
    34    0.0000    0.0000   -0.2333    0.0005   90.0000    0.0000    0.0025    33    34    35     1
    35    0.0000    0.0000   -0.2328    0.0005   90.0000    0.0000    0.0025    34    35    36     1
    36    0.0000    0.0000   -0.2323    0.0005   90.0000    0.0000    0.0025    35    36    37     1
    37    0.0000    0.0000   -0.2318    0.0005   90.0000    0.0000    0.0025    36    37    38     1
    38    0.0000    0.0000   -0.2313    0.0005   90.0000    0.0000    0.0025    37    38    39     1
    39    0.0000    0.0000   -0.2308    0.0005   90.0000    0.0000    0.0025    38    39    40     1
    40    0.0000    0.0000   -0.2303    0.0005   90.0000    0.0000    0.0025    39    40    41     1
    41    0.0000    0.0000   -0.2298    0.0005   90.0000    0.0000    0.0025    40    41    42     1
    42    0.0000    0.0000   -0.2293    0.0005   90.0000    0.0000    0.0025    41    42    43     1
    43    0.0000    0.0000   -0.2288    0.0005   90.0000    0.0000    0.0025    42    43    44     1
    44    0.0000    0.0000   -0.2283    0.0005   90.0000    0.0000    0.0025    43    44    45     1
    45    0.0000    0.0000   -0.2278    0.0005   90.0000    0.0000    0.0025    44    45    46     1
    46    0.0000    0.0000   -0.2273    0.0005   90.0000    0.0000    0.0025    45    46    47     1
    47    0.0000    0.0000   -0.2268    0.0005   90.0000    0.0000    0.0025    46    47    48     1
    48    0.0000    0.0000   -0.2263    0.0005   90.0000    0.0000    0.0025    47    48    49     1
    49    0.0000    0.0000   -0.2258    0.0005   90.0000    0.0000    0.0025    48    49    50     1
    50    0.0000    0.0000   -0.2253    0.0005   90.0000    0.0000    0.0025    49    50    51     1
    51    0.0000    0.0000   -0.2248    0.0005   90.0000    0.0000    0.0025    50    51    52     1
    52    0.0000    0.0000   -0.2243    0.0005   90.0000    0.0000    0.0025    51    52    53     1
    53    0.0000    0.0000   -0.2238    0.0005   90.0000    0.0000    0.0025    52    53    54     1
    54    0.0000    0.0000   -0.2233    0.0005   90.0000    0.0000    0.0025    53    54    55     1
    55    0.0000    0.0000   -0.2228    0.0005   90.0000    0.0000    0.0025    54    55    56     1
    56    0.0000    0.0000   -0.2223    0.0005   90.0000    0.0000    0.0025    55    56    57     1
    57    0.0000    0.0000   -0.2218    0.0005   90.0000    0.0000    0.0025    56    57    58     1
    58    0.0000    0.0000   -0.2213    0.0005   90.0000    0.0000    0.0025    57    58    59     1
    59    0.0000    0.0000   -0.2208    0.0005   90.0000    0.0000    0.0025    58    59    60     1
    60    0.0000    0.0000   -0.2203    0.0005   90.0000    0.0000    0.0025    59    60    61     1
    61    0.0000    0.0000   -0.2198    0.0005   90.0000    0.0000    0.0025    60    61    62     1
    62    0.0000    0.0000   -0.2193    0.0005   90.0000    0.0000    0.0025    61    62    63     1
    63    0.0000    0.0000   -0.2188    0.0005   90.0000    0.0000    0.0025    62    63    64     1
    64    0.0000    0.0000   -0.2183    0.0005   90.0000    0.0000    0.0025    63    64    65     1
    65    0.0000    0.0000   -0.2178    0.0005   90.0000    0.0000    0.0025    64    65    66     1
    66    0.0000    0.0000   -0.2173    0.0005   90.0000    0.0000    0.0025    65    66    67     1
    67    0.0000    0.0000   -0.2168    0.0005   90.0000    0.0000    0.0025    66    67    68     1
    68    0.0000    0.0000   -0.2163    0.0005   90.0000    0.0000    0.0025    67    68    69     1
    69    0.0000    0.0000   -0.2158    0.0005   90.0000    0.0000    0.0025    68    69    70     1
    70    0.0000    0.0000   -0.2153    0.0005   90.0000    0.0000    0.0025    69    70    71     1
    71    0.0000    0.0000   -0.2148    0.0005   90.0000    0.0000    0.0025    70    71    72     1
    72    0.0000    0.0000   -0.2143    0.0005   90.0000    0.0000    0.0025    71    72    73     1
    73    0.0000    0.0000   -0.2138    0.0005   90.0000    0.0000    0.0025    72    73    74     1
    74    0.0000    0.0000   -0.2133    0.0005   90.0000    0.0000    0.0025    73    74    75     1
    75    0.0000    0.0000   -0.2128    0.0005   90.0000    0.0000    0.0025    74    75    76     1
    76    0.0000    0.0000   -0.2123    0.0005   90.0000    0.0000    0.0025    75    76    77     1
    77    0.0000    0.0000   -0.2118    0.0005   90.0000    0.0000    0.0025    76    77    78     1
    78    0.0000    0.0000   -0.2113    0.0005   90.0000    0.0000    0.0025    77    78    79     1
    79    0.0000    0.0000   -0.2108    0.0005   90.0000    0.0000    0.0025    78    79    80     1
    80    0.0000    0.0000   -0.2103    0.0005   90.0000    0.0000    0.0025    79    80    81     1
    81    0.0000    0.0000   -0.2098    0.0005   90.0000    0.0000    0.0025    80    81    82     1
    82    0.0000    0.0000   -0.2093    0.0005   90.0000    0.0000    0.0025    81    82    83     1
    83    0.0000    0.0000   -0.2088    0.0005   90.0000    0.0000    0.0025    82    83    84     1
    84    0.0000    0.0000   -0.2083    0.0005   90.0000    0.0000    0.0025    83    84    85     1
    85    0.0000    0.0000   -0.2078    0.0005   90.0000    0.0000    0.0025    84    85    86     1
    86    0.0000    0.0000   -0.2073    0.0005   90.0000    0.0000    0.0025    85    86    87     1
    87    0.0000    0.0000   -0.2068    0.0005   90.0000    0.0000    0.0025    86    87    88     1
    88    0.0000    0.0000   -0.2063    0.0005   90.0000    0.0000    0.0025    87    88    89     1
    89    0.0000    0.0000   -0.2058    0.0005   90.0000    0.0000    0.0025    88    89    90     1
    90    0.0000    0.0000   -0.2053    0.0005   90.0000    0.0000    0.0025    89    90    91     1
    91    0.0000    0.0000   -0.2048    0.0005   90.0000    0.0000    0.0025    90    91    92     1
    92    0.0000    0.0000   -0.2043    0.0005   90.0000    0.0000    0.0025    91    92    93     1
    93    0.0000    0.0000   -0.2038    0.0005   90.0000    0.0000    0.0025    92    93    94     1
    94    0.0000    0.0000   -0.2033    0.0005   90.0000    0.0000    0.0025    93    94    95     1
    95    0.0000    0.0000   -0.2028    0.0005   90.0000    0.0000    0.0025    94    95    96     1
    96    0.0000    0.0000   -0.2023    0.0005   90.0000    0.0000    0.0025    95    96    97     1
    97    0.0000    0.0000   -0.2018    0.0005   90.0000    0.0000    0.0025    96    97    98     1
    98    0.0000    0.0000   -0.2013    0.0005   90.0000    0.0000    0.0025    97    98    99     1
    99    0.0000    0.0000   -0.2008    0.0005   90.0000    0.0000    0.0025    98    99   100     1
   100    0.0000    0.0000   -0.2003    0.0005   90.0000    0.0000    0.0025    99   100   101     1
   101    0.0000    0.0000   -0.1998    0.0005   90.0000    0.0000    0.0025   100   101   102     1
   102    0.0000    0.0000   -0.1993    0.0005   90.0000    0.0000    0.0025   101   102   103     1
   103    0.0000    0.0000   -0.1988    0.0005   90.0000    0.0000    0.0025   102   103   104     1
   104    0.0000    0.0000   -0.1983    0.0005   90.0000    0.0000    0.0025   103   104   105     1
   105    0.0000    0.0000   -0.1978    0.0005   90.0000    0.0000    0.0025   104   105   106     1
   106    0.0000    0.0000   -0.1973    0.0005   90.0000    0.0000    0.0025   105   106   107     1
   107    0.0000    0.0000   -0.1968    0.0005   90.0000    0.0000    0.0025   106   107   108     1
   108    0.0000    0.0000   -0.1963    0.0005   90.0000    0.0000    0.0025   107   108   109     1
   109    0.0000    0.0000   -0.1958    0.0005   90.0000    0.0000    0.0025   108   109   110     1
   110    0.0000    0.0000   -0.1953    0.0005   90.0000    0.0000    0.0025   109   110   111     1
   111    0.0000    0.0000   -0.1948    0.0005   90.0000    0.0000    0.0025   110   111   112     1
   112    0.0000    0.0000   -0.1943    0.0005   90.0000    0.0000    0.0025   111   112   113     1
   113    0.0000    0.0000   -0.1938    0.0005   90.0000    0.0000    0.0025   112   113   114     1
   114    0.0000    0.0000   -0.1933    0.0005   90.0000    0.0000    0.0025   113   114   115     1
   115    0.0000    0.0000   -0.1928    0.0005   90.0000    0.0000    0.0025   114   115   116     1
   116    0.0000    0.0000   -0.1923    0.0005   90.0000    0.0000    0.0025   115   116   117     1
   117    0.0000    0.0000   -0.1918    0.0005   90.0000    0.0000    0.0025   116   117   118     1
   118    0.0000    0.0000   -0.1913    0.0005   90.0000    0.0000    0.0025   117   118   119     1
   119    0.0000    0.0000   -0.1908    0.0005   90.0000    0.0000    0.0025   118   119   120     1
   120    0.0000    0.0000   -0.1903    0.0005   90.0000    0.0000    0.0025   119   120   121     1
   121    0.0000    0.0000   -0.1898    0.0005   90.0000    0.0000    0.0025   120   121   122     1
   122    0.0000    0.0000   -0.1893    0.0005   90.0000    0.0000    0.0025   121   122   123     1
   123    0.0000    0.0000   -0.1888    0.0005   90.0000    0.0000    0.0025   122   123   124     1
   124    0.0000    0.0000   -0.1883    0.0005   90.0000    0.0000    0.0025   123   124   125     1
   125    0.0000    0.0000   -0.1878    0.0005   90.0000    0.0000    0.0025   124   125   126     1
   126    0.0000    0.0000   -0.1873    0.0005   90.0000    0.0000    0.0025   125   126   127     1
   127    0.0000    0.0000   -0.1868    0.0005   90.0000    0.0000    0.0025   126   127   128     1
   128    0.0000    0.0000   -0.1863    0.0005   90.0000    0.0000    0.0025   127   128   129     1
   129    0.0000    0.0000   -0.1858    0.0005   90.0000    0.0000    0.0025   128   129   130     1
   130    0.0000    0.0000   -0.1853    0.0005   90.0000    0.0000    0.0025   129   130   131     1
   131    0.0000    0.0000   -0.1848    0.0005   90.0000    0.0000    0.0025   130   131   132     1
   132    0.0000    0.0000   -0.1843    0.0005   90.0000    0.0000    0.0025   131   132   133     1
   133    0.0000    0.0000   -0.1838    0.0005   90.0000    0.0000    0.0025   132   133   134     1
   134    0.0000    0.0000   -0.1833    0.0005   90.0000    0.0000    0.0025   133   134   135     1
   135    0.0000    0.0000   -0.1828    0.0005   90.0000    0.0000    0.0025   134   135   136     1
   136    0.0000    0.0000   -0.1823    0.0005   90.0000    0.0000    0.0025   135   136   137     1
   137    0.0000    0.0000   -0.1818    0.0005   90.0000    0.0000    0.0025   136   137   138     1
   138    0.0000    0.0000   -0.1813    0.0005   90.0000    0.0000    0.0025   137   138   139     1
   139    0.0000    0.0000   -0.1808    0.0005   90.0000    0.0000    0.0025   138   139   140     1
   140    0.0000    0.0000   -0.1803    0.0005   90.0000    0.0000    0.0025   139   140   141     1
   141    0.0000    0.0000   -0.1798    0.0005   90.0000    0.0000    0.0025   140   141   142     1
   142    0.0000    0.0000   -0.1793    0.0005   90.0000    0.0000    0.0025   141   142   143     1
   143    0.0000    0.0000   -0.1788    0.0005   90.0000    0.0000    0.0025   142   143   144     1
   144    0.0000    0.0000   -0.1783    0.0005   90.0000    0.0000    0.0025   143   144   145     1
   145    0.0000    0.0000   -0.1778    0.0005   90.0000    0.0000    0.0025   144   145   146     1
   146    0.0000    0.0000   -0.1773    0.0005   90.0000    0.0000    0.0025   145   146   147     1
   147    0.0000    0.0000   -0.1768    0.0005   90.0000    0.0000    0.0025   146   147   148     1
   148    0.0000    0.0000   -0.1763    0.0005   90.0000    0.0000    0.0025   147   148   149     1
   149    0.0000    0.0000   -0.1758    0.0005   90.0000    0.0000    0.0025   148   149   150     1
   150    0.0000    0.0000   -0.1753    0.0005   90.0000    0.0000    0.0025   149   150   151     1
   151    0.0000    0.0000   -0.1748    0.0005   90.0000    0.0000    0.0025   150   151   152     1
   152    0.0000    0.0000   -0.1743    0.0005   90.0000    0.0000    0.0025   151   152   153     1
   153    0.0000    0.0000   -0.1738    0.0005   90.0000    0.0000    0.0025   152   153   154     1
   154    0.0000    0.0000   -0.1733    0.0005   90.0000    0.0000    0.0025   153   154   155     1
   155    0.0000    0.0000   -0.1728    0.0005   90.0000    0.0000    0.0025   154   155   156     1
   156    0.0000    0.0000   -0.1723    0.0005   90.0000    0.0000    0.0025   155   156   157     1
   157    0.0000    0.0000   -0.1718    0.0005   90.0000    0.0000    0.0025   156   157   158     1
   158    0.0000    0.0000   -0.1713    0.0005   90.0000    0.0000    0.0025   157   158   159     1
   159    0.0000    0.0000   -0.1708    0.0005   90.0000    0.0000    0.0025   158   159   160     1
   160    0.0000    0.0000   -0.1703    0.0005   90.0000    0.0000    0.0025   159   160   161     1
   161    0.0000    0.0000   -0.1698    0.0005   90.0000    0.0000    0.0025   160   161   162     1
   162    0.0000    0.0000   -0.1693    0.0005   90.0000    0.0000    0.0025   161   162   163     1
   163    0.0000    0.0000   -0.1688    0.0005   90.0000    0.0000    0.0025   162   163   164     1
   164    0.0000    0.0000   -0.1683    0.0005   90.0000    0.0000    0.0025   163   164   165     1
   165    0.0000    0.0000   -0.1678    0.0005   90.0000    0.0000    0.0025   164   165   166     1
   166    0.0000    0.0000   -0.1673    0.0005   90.0000    0.0000    0.0025   165   166   167     1
   167    0.0000    0.0000   -0.1668    0.0005   90.0000    0.0000    0.0025   166   167   168     1
   168    0.0000    0.0000   -0.1663    0.0005   90.0000    0.0000    0.0025   167   168   169     1
   169    0.0000    0.0000   -0.1658    0.0005   90.0000    0.0000    0.0025   168   169   170     1
   170    0.0000    0.0000   -0.1653    0.0005   90.0000    0.0000    0.0025   169   170   171     1
   171    0.0000    0.0000   -0.1648    0.0005   90.0000    0.0000    0.0025   170   171   172     1
   172    0.0000    0.0000   -0.1643    0.0005   90.0000    0.0000    0.0025   171   172   173     1
   173    0.0000    0.0000   -0.1638    0.0005   90.0000    0.0000    0.0025   172   173   174     1
   174    0.0000    0.0000   -0.1633    0.0005   90.0000    0.0000    0.0025   173   174   175     1
   175    0.0000    0.0000   -0.1628    0.0005   90.0000    0.0000    0.0025   174   175   176     1
   176    0.0000    0.0000   -0.1623    0.0005   90.0000    0.0000    0.0025   175   176   177     1
   177    0.0000    0.0000   -0.1618    0.0005   90.0000    0.0000    0.0025   176   177   178     1
   178    0.0000    0.0000   -0.1613    0.0005   90.0000    0.0000    0.0025   177   178   179     1
   179    0.0000    0.0000   -0.1608    0.0005   90.0000    0.0000    0.0025   178   179   180     1
   180    0.0000    0.0000   -0.1603    0.0005   90.0000    0.0000    0.0025   179   180   181     1
   181    0.0000    0.0000   -0.1598    0.0005   90.0000    0.0000    0.0025   180   181   182     1
   182    0.0000    0.0000   -0.1593    0.0005   90.0000    0.0000    0.0025   181   182   183     1
   183    0.0000    0.0000   -0.1588    0.0005   90.0000    0.0000    0.0025   182   183   184     1
   184    0.0000    0.0000   -0.1583    0.0005   90.0000    0.0000    0.0025   183   184   185     1
   185    0.0000    0.0000   -0.1578    0.0005   90.0000    0.0000    0.0025   184   185   186     1
   186    0.0000    0.0000   -0.1573    0.0005   90.0000    0.0000    0.0025   185   186   187     1
   187    0.0000    0.0000   -0.1568    0.0005   90.0000    0.0000    0.0025   186   187   188     1
   188    0.0000    0.0000   -0.1563    0.0005   90.0000    0.0000    0.0025   187   188   189     1
   189    0.0000    0.0000   -0.1558    0.0005   90.0000    0.0000    0.0025   188   189   190     1
   190    0.0000    0.0000   -0.1553    0.0005   90.0000    0.0000    0.0025   189   190   191     1
   191    0.0000    0.0000   -0.1548    0.0005   90.0000    0.0000    0.0025   190   191   192     1
   192    0.0000    0.0000   -0.1543    0.0005   90.0000    0.0000    0.0025   191   192   193     1
   193    0.0000    0.0000   -0.1538    0.0005   90.0000    0.0000    0.0025   192   193   194     1
   194    0.0000    0.0000   -0.1533    0.0005   90.0000    0.0000    0.0025   193   194   195     1
   195    0.0000    0.0000   -0.1528    0.0005   90.0000    0.0000    0.0025   194   195   196     1
   196    0.0000    0.0000   -0.1523    0.0005   90.0000    0.0000    0.0025   195   196   197     1
   197    0.0000    0.0000   -0.1518    0.0005   90.0000    0.0000    0.0025   196   197   198     1
   198    0.0000    0.0000   -0.1513    0.0005   90.0000    0.0000    0.0025   197   198   199     1
   199    0.0000    0.0000   -0.1508    0.0005   90.0000    0.0000    0.0025   198   199   200     1
   200    0.0000    0.0000   -0.1503    0.0005   90.0000    0.0000    0.0025   199   200   201     1
   201    0.0000    0.0000   -0.1499    0.0005   90.0000    0.0000    0.0025   200   201   202     1
   202    0.0000    0.0000   -0.1494    0.0005   90.0000    0.0000    0.0025   201   202   203     1
   203    0.0000    0.0000   -0.1489    0.0005   90.0000    0.0000    0.0025   202   203   204     1
   204    0.0000    0.0000   -0.1484    0.0005   90.0000    0.0000    0.0025   203   204   205     1
   205    0.0000    0.0000   -0.1479    0.0005   90.0000    0.0000    0.0025   204   205   206     1
   206    0.0000    0.0000   -0.1474    0.0005   90.0000    0.0000    0.0025   205   206   207     1
   207    0.0000    0.0000   -0.1469    0.0005   90.0000    0.0000    0.0025   206   207   208     1
   208    0.0000    0.0000   -0.1464    0.0005   90.0000    0.0000    0.0025   207   208   209     1
   209    0.0000    0.0000   -0.1459    0.0005   90.0000    0.0000    0.0025   208   209   210     1
   210    0.0000    0.0000   -0.1454    0.0005   90.0000    0.0000    0.0025   209   210   211     1
   211    0.0000    0.0000   -0.1449    0.0005   90.0000    0.0000    0.0025   210   211   212     1
   212    0.0000    0.0000   -0.1444    0.0005   90.0000    0.0000    0.0025   211   212   213     1
   213    0.0000    0.0000   -0.1439    0.0005   90.0000    0.0000    0.0025   212   213   214     1
   214    0.0000    0.0000   -0.1434    0.0005   90.0000    0.0000    0.0025   213   214   215     1
   215    0.0000    0.0000   -0.1429    0.0005   90.0000    0.0000    0.0025   214   215   216     1
   216    0.0000    0.0000   -0.1424    0.0005   90.0000    0.0000    0.0025   215   216   217     1
   217    0.0000    0.0000   -0.1419    0.0005   90.0000    0.0000    0.0025   216   217   218     1
   218    0.0000    0.0000   -0.1414    0.0005   90.0000    0.0000    0.0025   217   218   219     1
   219    0.0000    0.0000   -0.1409    0.0005   90.0000    0.0000    0.0025   218   219   220     1
   220    0.0000    0.0000   -0.1404    0.0005   90.0000    0.0000    0.0025   219   220   221     1
   221    0.0000    0.0000   -0.1399    0.0005   90.0000    0.0000    0.0025   220   221   222     1
   222    0.0000    0.0000   -0.1394    0.0005   90.0000    0.0000    0.0025   221   222   223     1
   223    0.0000    0.0000   -0.1389    0.0005   90.0000    0.0000    0.0025   222   223   224     1
   224    0.0000    0.0000   -0.1384    0.0005   90.0000    0.0000    0.0025   223   224   225     1
   225    0.0000    0.0000   -0.1379    0.0005   90.0000    0.0000    0.0025   224   225   226     1
   226    0.0000    0.0000   -0.1374    0.0005   90.0000    0.0000    0.0025   225   226   227     1
   227    0.0000    0.0000   -0.1369    0.0005   90.0000    0.0000    0.0025   226   227   228     1
   228    0.0000    0.0000   -0.1364    0.0005   90.0000    0.0000    0.0025   227   228   229     1
   229    0.0000    0.0000   -0.1359    0.0005   90.0000    0.0000    0.0025   228   229   230     1
   230    0.0000    0.0000   -0.1354    0.0005   90.0000    0.0000    0.0025   229   230   231     1
   231    0.0000    0.0000   -0.1349    0.0005   90.0000    0.0000    0.0025   230   231   232     1
   232    0.0000    0.0000   -0.1344    0.0005   90.0000    0.0000    0.0025   231   232   233     1
   233    0.0000    0.0000   -0.1339    0.0005   90.0000    0.0000    0.0025   232   233   234     1
   234    0.0000    0.0000   -0.1334    0.0005   90.0000    0.0000    0.0025   233   234   235     1
   235    0.0000    0.0000   -0.1329    0.0005   90.0000    0.0000    0.0025   234   235   236     1
   236    0.0000    0.0000   -0.1324    0.0005   90.0000    0.0000    0.0025   235   236   237     1
   237    0.0000    0.0000   -0.1319    0.0005   90.0000    0.0000    0.0025   236   237   238     1
   238    0.0000    0.0000   -0.1314    0.0005   90.0000    0.0000    0.0025   237   238   239     1
   239    0.0000    0.0000   -0.1309    0.0005   90.0000    0.0000    0.0025   238   239   240     1
   240    0.0000    0.0000   -0.1304    0.0005   90.0000    0.0000    0.0025   239   240   241     1
   241    0.0000    0.0000   -0.1299    0.0005   90.0000    0.0000    0.0025   240   241   242     1
   242    0.0000    0.0000   -0.1294    0.0005   90.0000    0.0000    0.0025   241   242   243     1
   243    0.0000    0.0000   -0.1289    0.0005   90.0000    0.0000    0.0025   242   243   244     1
   244    0.0000    0.0000   -0.1284    0.0005   90.0000    0.0000    0.0025   243   244   245     1
   245    0.0000    0.0000   -0.1279    0.0005   90.0000    0.0000    0.0025   244   245   246     1
   246    0.0000    0.0000   -0.1274    0.0005   90.0000    0.0000    0.0025   245   246   247     1
   247    0.0000    0.0000   -0.1269    0.0005   90.0000    0.0000    0.0025   246   247   248     1
   248    0.0000    0.0000   -0.1264    0.0005   90.0000    0.0000    0.0025   247   248   249     1
   249    0.0000    0.0000   -0.1259    0.0005   90.0000    0.0000    0.0025   248   249   250     1
   250    0.0000    0.0000   -0.1254    0.0005   90.0000    0.0000    0.0025   249   250   251     1
   251    0.0000    0.0000   -0.1249    0.0005   90.0000    0.0000    0.0025   250   251   252     1
   252    0.0000    0.0000   -0.1244    0.0005   90.0000    0.0000    0.0025   251   252   253     1
   253    0.0000    0.0000   -0.1239    0.0005   90.0000    0.0000    0.0025   252   253   254     1
   254    0.0000    0.0000   -0.1234    0.0005   90.0000    0.0000    0.0025   253   254   255     1
   255    0.0000    0.0000   -0.1229    0.0005   90.0000    0.0000    0.0025   254   255   256     1
   256    0.0000    0.0000   -0.1224    0.0005   90.0000    0.0000    0.0025   255   256   257     1
   257    0.0000    0.0000   -0.1219    0.0005   90.0000    0.0000    0.0025   256   257   258     1
   258    0.0000    0.0000   -0.1214    0.0005   90.0000    0.0000    0.0025   257   258   259     1
   259    0.0000    0.0000   -0.1209    0.0005   90.0000    0.0000    0.0025   258   259   260     1
   260    0.0000    0.0000   -0.1204    0.0005   90.0000    0.0000    0.0025   259   260   261     1
   261    0.0000    0.0000   -0.1199    0.0005   90.0000    0.0000    0.0025   260   261   262     1
   262    0.0000    0.0000   -0.1194    0.0005   90.0000    0.0000    0.0025   261   262   263     1
   263    0.0000    0.0000   -0.1189    0.0005   90.0000    0.0000    0.0025   262   263   264     1
   264    0.0000    0.0000   -0.1184    0.0005   90.0000    0.0000    0.0025   263   264   265     1
   265    0.0000    0.0000   -0.1179    0.0005   90.0000    0.0000    0.0025   264   265   266     1
   266    0.0000    0.0000   -0.1174    0.0005   90.0000    0.0000    0.0025   265   266   267     1
   267    0.0000    0.0000   -0.1169    0.0005   90.0000    0.0000    0.0025   266   267   268     1
   268    0.0000    0.0000   -0.1164    0.0005   90.0000    0.0000    0.0025   267   268   269     1
   269    0.0000    0.0000   -0.1159    0.0005   90.0000    0.0000    0.0025   268   269   270     1
   270    0.0000    0.0000   -0.1154    0.0005   90.0000    0.0000    0.0025   269   270   271     1
   271    0.0000    0.0000   -0.1149    0.0005   90.0000    0.0000    0.0025   270   271   272     1
   272    0.0000    0.0000   -0.1144    0.0005   90.0000    0.0000    0.0025   271   272   273     1
   273    0.0000    0.0000   -0.1139    0.0005   90.0000    0.0000    0.0025   272   273   274     1
   274    0.0000    0.0000   -0.1134    0.0005   90.0000    0.0000    0.0025   273   274   275     1
   275    0.0000    0.0000   -0.1129    0.0005   90.0000    0.0000    0.0025   274   275   276     1
   276    0.0000    0.0000   -0.1124    0.0005   90.0000    0.0000    0.0025   275   276   277     1
   277    0.0000    0.0000   -0.1119    0.0005   90.0000    0.0000    0.0025   276   277   278     1
   278    0.0000    0.0000   -0.1114    0.0005   90.0000    0.0000    0.0025   277   278   279     1
   279    0.0000    0.0000   -0.1109    0.0005   90.0000    0.0000    0.0025   278   279   280     1
   280    0.0000    0.0000   -0.1104    0.0005   90.0000    0.0000    0.0025   279   280   281     1
   281    0.0000    0.0000   -0.1099    0.0005   90.0000    0.0000    0.0025   280   281   282     1
   282    0.0000    0.0000   -0.1094    0.0005   90.0000    0.0000    0.0025   281   282   283     1
   283    0.0000    0.0000   -0.1089    0.0005   90.0000    0.0000    0.0025   282   283   284     1
   284    0.0000    0.0000   -0.1084    0.0005   90.0000    0.0000    0.0025   283   284   285     1
   285    0.0000    0.0000   -0.1079    0.0005   90.0000    0.0000    0.0025   284   285   286     1
   286    0.0000    0.0000   -0.1074    0.0005   90.0000    0.0000    0.0025   285   286   287     1
   287    0.0000    0.0000   -0.1069    0.0005   90.0000    0.0000    0.0025   286   287   288     1
   288    0.0000    0.0000   -0.1064    0.0005   90.0000    0.0000    0.0025   287   288   289     1
   289    0.0000    0.0000   -0.1059    0.0005   90.0000    0.0000    0.0025   288   289   290     1
   290    0.0000    0.0000   -0.1054    0.0005   90.0000    0.0000    0.0025   289   290   291     1
   291    0.0000    0.0000   -0.1049    0.0005   90.0000    0.0000    0.0025   290   291   292     1
   292    0.0000    0.0000   -0.1044    0.0005   90.0000    0.0000    0.0025   291   292   293     1
   293    0.0000    0.0000   -0.1039    0.0005   90.0000    0.0000    0.0025   292   293   294     1
   294    0.0000    0.0000   -0.1034    0.0005   90.0000    0.0000    0.0025   293   294   295     1
   295    0.0000    0.0000   -0.1029    0.0005   90.0000    0.0000    0.0025   294   295   296     1
   296    0.0000    0.0000   -0.1024    0.0005   90.0000    0.0000    0.0025   295   296   297     1
   297    0.0000    0.0000   -0.1019    0.0005   90.0000    0.0000    0.0025   296   297   298     1
   298    0.0000    0.0000   -0.1014    0.0005   90.0000    0.0000    0.0025   297   298   299     1
   299    0.0000    0.0000   -0.1009    0.0005   90.0000    0.0000    0.0025   298   299   300     1
   300    0.0000    0.0000   -0.1004    0.0005   90.0000    0.0000    0.0025   299   300   301     1
   301    0.0000    0.0000   -0.0999    0.0005   90.0000    0.0000    0.0025   300   301   302     1
   302    0.0000    0.0000   -0.0994    0.0005   90.0000    0.0000    0.0025   301   302   303     1
   303    0.0000    0.0000   -0.0989    0.0005   90.0000    0.0000    0.0025   302   303   304     1
   304    0.0000    0.0000   -0.0984    0.0005   90.0000    0.0000    0.0025   303   304   305     1
   305    0.0000    0.0000   -0.0979    0.0005   90.0000    0.0000    0.0025   304   305   306     1
   306    0.0000    0.0000   -0.0974    0.0005   90.0000    0.0000    0.0025   305   306   307     1
   307    0.0000    0.0000   -0.0969    0.0005   90.0000    0.0000    0.0025   306   307   308     1
   308    0.0000    0.0000   -0.0964    0.0005   90.0000    0.0000    0.0025   307   308   309     1
   309    0.0000    0.0000   -0.0959    0.0005   90.0000    0.0000    0.0025   308   309   310     1
   310    0.0000    0.0000   -0.0954    0.0005   90.0000    0.0000    0.0025   309   310   311     1
   311    0.0000    0.0000   -0.0949    0.0005   90.0000    0.0000    0.0025   310   311   312     1
   312    0.0000    0.0000   -0.0944    0.0005   90.0000    0.0000    0.0025   311   312   313     1
   313    0.0000    0.0000   -0.0939    0.0005   90.0000    0.0000    0.0025   312   313   314     1
   314    0.0000    0.0000   -0.0934    0.0005   90.0000    0.0000    0.0025   313   314   315     1
   315    0.0000    0.0000   -0.0929    0.0005   90.0000    0.0000    0.0025   314   315   316     1
   316    0.0000    0.0000   -0.0924    0.0005   90.0000    0.0000    0.0025   315   316   317     1
   317    0.0000    0.0000   -0.0919    0.0005   90.0000    0.0000    0.0025   316   317   318     1
   318    0.0000    0.0000   -0.0914    0.0005   90.0000    0.0000    0.0025   317   318   319     1
   319    0.0000    0.0000   -0.0909    0.0005   90.0000    0.0000    0.0025   318   319   320     1
   320    0.0000    0.0000   -0.0904    0.0005   90.0000    0.0000    0.0025   319   320   321     1
   321    0.0000    0.0000   -0.0899    0.0005   90.0000    0.0000    0.0025   320   321   322     1
   322    0.0000    0.0000   -0.0894    0.0005   90.0000    0.0000    0.0025   321   322   323     1
   323    0.0000    0.0000   -0.0889    0.0005   90.0000    0.0000    0.0025   322   323   324     1
   324    0.0000    0.0000   -0.0884    0.0005   90.0000    0.0000    0.0025   323   324   325     1
   325    0.0000    0.0000   -0.0879    0.0005   90.0000    0.0000    0.0025   324   325   326     1
   326    0.0000    0.0000   -0.0874    0.0005   90.0000    0.0000    0.0025   325   326   327     1
   327    0.0000    0.0000   -0.0869    0.0005   90.0000    0.0000    0.0025   326   327   328     1
   328    0.0000    0.0000   -0.0864    0.0005   90.0000    0.0000    0.0025   327   328   329     1
   329    0.0000    0.0000   -0.0859    0.0005   90.0000    0.0000    0.0025   328   329   330     1
   330    0.0000    0.0000   -0.0854    0.0005   90.0000    0.0000    0.0025   329   330   331     1
   331    0.0000    0.0000   -0.0849    0.0005   90.0000    0.0000    0.0025   330   331   332     1
   332    0.0000    0.0000   -0.0844    0.0005   90.0000    0.0000    0.0025   331   332   333     1
   333    0.0000    0.0000   -0.0839    0.0005   90.0000    0.0000    0.0025   332   333   334     1
   334    0.0000    0.0000   -0.0834    0.0005   90.0000    0.0000    0.0025   333   334   335     1
   335    0.0000    0.0000   -0.0829    0.0005   90.0000    0.0000    0.0025   334   335   336     1
   336    0.0000    0.0000   -0.0824    0.0005   90.0000    0.0000    0.0025   335   336   337     1
   337    0.0000    0.0000   -0.0819    0.0005   90.0000    0.0000    0.0025   336   337   338     1
   338    0.0000    0.0000   -0.0814    0.0005   90.0000    0.0000    0.0025   337   338   339     1
   339    0.0000    0.0000   -0.0809    0.0005   90.0000    0.0000    0.0025   338   339   340     1
   340    0.0000    0.0000   -0.0804    0.0005   90.0000    0.0000    0.0025   339   340   341     1
   341    0.0000    0.0000   -0.0799    0.0005   90.0000    0.0000    0.0025   340   341   342     1
   342    0.0000    0.0000   -0.0794    0.0005   90.0000    0.0000    0.0025   341   342   343     1
   343    0.0000    0.0000   -0.0789    0.0005   90.0000    0.0000    0.0025   342   343   344     1
   344    0.0000    0.0000   -0.0784    0.0005   90.0000    0.0000    0.0025   343   344   345     1
   345    0.0000    0.0000   -0.0779    0.0005   90.0000    0.0000    0.0025   344   345   346     1
   346    0.0000    0.0000   -0.0774    0.0005   90.0000    0.0000    0.0025   345   346   347     1
   347    0.0000    0.0000   -0.0769    0.0005   90.0000    0.0000    0.0025   346   347   348     1
   348    0.0000    0.0000   -0.0764    0.0005   90.0000    0.0000    0.0025   347   348   349     1
   349    0.0000    0.0000   -0.0759    0.0005   90.0000    0.0000    0.0025   348   349   350     1
   350    0.0000    0.0000   -0.0754    0.0005   90.0000    0.0000    0.0025   349   350   351     1
   351    0.0000    0.0000   -0.0749    0.0005   90.0000    0.0000    0.0025   350   351   352     1
   352    0.0000    0.0000   -0.0744    0.0005   90.0000    0.0000    0.0025   351   352   353     1
   353    0.0000    0.0000   -0.0739    0.0005   90.0000    0.0000    0.0025   352   353   354     1
   354    0.0000    0.0000   -0.0734    0.0005   90.0000    0.0000    0.0025   353   354   355     1
   355    0.0000    0.0000   -0.0729    0.0005   90.0000    0.0000    0.0025   354   355   356     1
   356    0.0000    0.0000   -0.0724    0.0005   90.0000    0.0000    0.0025   355   356   357     1
   357    0.0000    0.0000   -0.0719    0.0005   90.0000    0.0000    0.0025   356   357   358     1
   358    0.0000    0.0000   -0.0714    0.0005   90.0000    0.0000    0.0025   357   358   359     1
   359    0.0000    0.0000   -0.0709    0.0005   90.0000    0.0000    0.0025   358   359   360     1
   360    0.0000    0.0000   -0.0704    0.0005   90.0000    0.0000    0.0025   359   360   361     1
   361    0.0000    0.0000   -0.0699    0.0005   90.0000    0.0000    0.0025   360   361   362     1
   362    0.0000    0.0000   -0.0694    0.0005   90.0000    0.0000    0.0025   361   362   363     1
   363    0.0000    0.0000   -0.0689    0.0005   90.0000    0.0000    0.0025   362   363   364     1
   364    0.0000    0.0000   -0.0684    0.0005   90.0000    0.0000    0.0025   363   364   365     1
   365    0.0000    0.0000   -0.0679    0.0005   90.0000    0.0000    0.0025   364   365   366     1
   366    0.0000    0.0000   -0.0674    0.0005   90.0000    0.0000    0.0025   365   366   367     1
   367    0.0000    0.0000   -0.0669    0.0005   90.0000    0.0000    0.0025   366   367   368     1
   368    0.0000    0.0000   -0.0664    0.0005   90.0000    0.0000    0.0025   367   368   369     1
   369    0.0000    0.0000   -0.0659    0.0005   90.0000    0.0000    0.0025   368   369   370     1
   370    0.0000    0.0000   -0.0654    0.0005   90.0000    0.0000    0.0025   369   370   371     1
   371    0.0000    0.0000   -0.0649    0.0005   90.0000    0.0000    0.0025   370   371   372     1
   372    0.0000    0.0000   -0.0644    0.0005   90.0000    0.0000    0.0025   371   372   373     1
   373    0.0000    0.0000   -0.0639    0.0005   90.0000    0.0000    0.0025   372   373   374     1
   374    0.0000    0.0000   -0.0634    0.0005   90.0000    0.0000    0.0025   373   374   375     1
   375    0.0000    0.0000   -0.0629    0.0005   90.0000    0.0000    0.0025   374   375   376     1
   376    0.0000    0.0000   -0.0624    0.0005   90.0000    0.0000    0.0025   375   376   377     1
   377    0.0000    0.0000   -0.0619    0.0005   90.0000    0.0000    0.0025   376   377   378     1
   378    0.0000    0.0000   -0.0614    0.0005   90.0000    0.0000    0.0025   377   378   379     1
   379    0.0000    0.0000   -0.0609    0.0005   90.0000    0.0000    0.0025   378   379   380     1
   380    0.0000    0.0000   -0.0604    0.0005   90.0000    0.0000    0.0025   379   380   381     1
   381    0.0000    0.0000   -0.0599    0.0005   90.0000    0.0000    0.0025   380   381   382     1
   382    0.0000    0.0000   -0.0594    0.0005   90.0000    0.0000    0.0025   381   382   383     1
   383    0.0000    0.0000   -0.0589    0.0005   90.0000    0.0000    0.0025   382   383   384     1
   384    0.0000    0.0000   -0.0584    0.0005   90.0000    0.0000    0.0025   383   384   385     1
   385    0.0000    0.0000   -0.0579    0.0005   90.0000    0.0000    0.0025   384   385   386     1
   386    0.0000    0.0000   -0.0574    0.0005   90.0000    0.0000    0.0025   385   386   387     1
   387    0.0000    0.0000   -0.0569    0.0005   90.0000    0.0000    0.0025   386   387   388     1
   388    0.0000    0.0000   -0.0564    0.0005   90.0000    0.0000    0.0025   387   388   389     1
   389    0.0000    0.0000   -0.0559    0.0005   90.0000    0.0000    0.0025   388   389   390     1
   390    0.0000    0.0000   -0.0554    0.0005   90.0000    0.0000    0.0025   389   390   391     1
   391    0.0000    0.0000   -0.0549    0.0005   90.0000    0.0000    0.0025   390   391   392     1
   392    0.0000    0.0000   -0.0544    0.0005   90.0000    0.0000    0.0025   391   392   393     1
   393    0.0000    0.0000   -0.0539    0.0005   90.0000    0.0000    0.0025   392   393   394     1
   394    0.0000    0.0000   -0.0534    0.0005   90.0000    0.0000    0.0025   393   394   395     1
   395    0.0000    0.0000   -0.0529    0.0005   90.0000    0.0000    0.0025   394   395   396     1
   396    0.0000    0.0000   -0.0524    0.0005   90.0000    0.0000    0.0025   395   396   397     1
   397    0.0000    0.0000   -0.0519    0.0005   90.0000    0.0000    0.0025   396   397   398     1
   398    0.0000    0.0000   -0.0514    0.0005   90.0000    0.0000    0.0025   397   398   399     1
   399    0.0000    0.0000   -0.0509    0.0005   90.0000    0.0000    0.0025   398   399   400     1
   400    0.0000    0.0000   -0.0504    0.0005   90.0000    0.0000    0.0025   399   400   401     1
   401    0.0000    0.0000   -0.0500    0.0005   90.0000    0.0000    0.0025   400   401   402     1
   402    0.0000    0.0000   -0.0495    0.0005   90.0000    0.0000    0.0025   401   402   403     1
   403    0.0000    0.0000   -0.0490    0.0005   90.0000    0.0000    0.0025   402   403   404     1
   404    0.0000    0.0000   -0.0485    0.0005   90.0000    0.0000    0.0025   403   404   405     1
   405    0.0000    0.0000   -0.0480    0.0005   90.0000    0.0000    0.0025   404   405   406     1
   406    0.0000    0.0000   -0.0475    0.0005   90.0000    0.0000    0.0025   405   406   407     1
   407    0.0000    0.0000   -0.0470    0.0005   90.0000    0.0000    0.0025   406   407   408     1
   408    0.0000    0.0000   -0.0465    0.0005   90.0000    0.0000    0.0025   407   408   409     1
   409    0.0000    0.0000   -0.0460    0.0005   90.0000    0.0000    0.0025   408   409   410     1
   410    0.0000    0.0000   -0.0455    0.0005   90.0000    0.0000    0.0025   409   410   411     1
   411    0.0000    0.0000   -0.0450    0.0005   90.0000    0.0000    0.0025   410   411   412     1
   412    0.0000    0.0000   -0.0445    0.0005   90.0000    0.0000    0.0025   411   412   413     1
   413    0.0000    0.0000   -0.0440    0.0005   90.0000    0.0000    0.0025   412   413   414     1
   414    0.0000    0.0000   -0.0435    0.0005   90.0000    0.0000    0.0025   413   414   415     1
   415    0.0000    0.0000   -0.0430    0.0005   90.0000    0.0000    0.0025   414   415   416     1
   416    0.0000    0.0000   -0.0425    0.0005   90.0000    0.0000    0.0025   415   416   417     1
   417    0.0000    0.0000   -0.0420    0.0005   90.0000    0.0000    0.0025   416   417   418     1
   418    0.0000    0.0000   -0.0415    0.0005   90.0000    0.0000    0.0025   417   418   419     1
   419    0.0000    0.0000   -0.0410    0.0005   90.0000    0.0000    0.0025   418   419   420     1
   420    0.0000    0.0000   -0.0405    0.0005   90.0000    0.0000    0.0025   419   420   421     1
   421    0.0000    0.0000   -0.0400    0.0005   90.0000    0.0000    0.0025   420   421   422     1
   422    0.0000    0.0000   -0.0395    0.0005   90.0000    0.0000    0.0025   421   422   423     1
   423    0.0000    0.0000   -0.0390    0.0005   90.0000    0.0000    0.0025   422   423   424     1
   424    0.0000    0.0000   -0.0385    0.0005   90.0000    0.0000    0.0025   423   424   425     1
   425    0.0000    0.0000   -0.0380    0.0005   90.0000    0.0000    0.0025   424   425   426     1
   426    0.0000    0.0000   -0.0375    0.0005   90.0000    0.0000    0.0025   425   426   427     1
   427    0.0000    0.0000   -0.0370    0.0005   90.0000    0.0000    0.0025   426   427   428     1
   428    0.0000    0.0000   -0.0365    0.0005   90.0000    0.0000    0.0025   427   428   429     1
   429    0.0000    0.0000   -0.0360    0.0005   90.0000    0.0000    0.0025   428   429   430     1
   430    0.0000    0.0000   -0.0355    0.0005   90.0000    0.0000    0.0025   429   430   431     1
   431    0.0000    0.0000   -0.0350    0.0005   90.0000    0.0000    0.0025   430   431   432     1
   432    0.0000    0.0000   -0.0345    0.0005   90.0000    0.0000    0.0025   431   432   433     1
   433    0.0000    0.0000   -0.0340    0.0005   90.0000    0.0000    0.0025   432   433   434     1
   434    0.0000    0.0000   -0.0335    0.0005   90.0000    0.0000    0.0025   433   434   435     1
   435    0.0000    0.0000   -0.0330    0.0005   90.0000    0.0000    0.0025   434   435   436     1
   436    0.0000    0.0000   -0.0325    0.0005   90.0000    0.0000    0.0025   435   436   437     1
   437    0.0000    0.0000   -0.0320    0.0005   90.0000    0.0000    0.0025   436   437   438     1
   438    0.0000    0.0000   -0.0315    0.0005   90.0000    0.0000    0.0025   437   438   439     1
   439    0.0000    0.0000   -0.0310    0.0005   90.0000    0.0000    0.0025   438   439   440     1
   440    0.0000    0.0000   -0.0305    0.0005   90.0000    0.0000    0.0025   439   440   441     1
   441    0.0000    0.0000   -0.0300    0.0005   90.0000    0.0000    0.0025   440   441   442     1
   442    0.0000    0.0000   -0.0295    0.0005   90.0000    0.0000    0.0025   441   442   443     1
   443    0.0000    0.0000   -0.0290    0.0005   90.0000    0.0000    0.0025   442   443   444     1
   444    0.0000    0.0000   -0.0285    0.0005   90.0000    0.0000    0.0025   443   444   445     1
   445    0.0000    0.0000   -0.0280    0.0005   90.0000    0.0000    0.0025   444   445   446     1
   446    0.0000    0.0000   -0.0275    0.0005   90.0000    0.0000    0.0025   445   446   447     1
   447    0.0000    0.0000   -0.0270    0.0005   90.0000    0.0000    0.0025   446   447   448     1
   448    0.0000    0.0000   -0.0265    0.0005   90.0000    0.0000    0.0025   447   448   449     1
   449    0.0000    0.0000   -0.0260    0.0005   90.0000    0.0000    0.0025   448   449   450     1
   450    0.0000    0.0000   -0.0255    0.0005   90.0000    0.0000    0.0025   449   450   451     1
   451    0.0000    0.0000   -0.0250    0.0005   90.0000    0.0000    0.0025   450   451   452     1
   452    0.0000    0.0000   -0.0245    0.0005   90.0000    0.0000    0.0025   451   452   453     1
   453    0.0000    0.0000   -0.0240    0.0005   90.0000    0.0000    0.0025   452   453   454     1
   454    0.0000    0.0000   -0.0235    0.0005   90.0000    0.0000    0.0025   453   454   455     1
   455    0.0000    0.0000   -0.0230    0.0005   90.0000    0.0000    0.0025   454   455   456     1
   456    0.0000    0.0000   -0.0225    0.0005   90.0000    0.0000    0.0025   455   456   457     1
   457    0.0000    0.0000   -0.0220    0.0005   90.0000    0.0000    0.0025   456   457   458     1
   458    0.0000    0.0000   -0.0215    0.0005   90.0000    0.0000    0.0025   457   458   459     1
   459    0.0000    0.0000   -0.0210    0.0005   90.0000    0.0000    0.0025   458   459   460     1
   460    0.0000    0.0000   -0.0205    0.0005   90.0000    0.0000    0.0025   459   460   461     1
   461    0.0000    0.0000   -0.0200    0.0005   90.0000    0.0000    0.0025   460   461   462     1
   462    0.0000    0.0000   -0.0195    0.0005   90.0000    0.0000    0.0025   461   462   463     1
   463    0.0000    0.0000   -0.0190    0.0005   90.0000    0.0000    0.0025   462   463   464     1
   464    0.0000    0.0000   -0.0185    0.0005   90.0000    0.0000    0.0025   463   464   465     1
   465    0.0000    0.0000   -0.0180    0.0005   90.0000    0.0000    0.0025   464   465   466     1
   466    0.0000    0.0000   -0.0175    0.0005   90.0000    0.0000    0.0025   465   466   467     1
   467    0.0000    0.0000   -0.0170    0.0005   90.0000    0.0000    0.0025   466   467   468     1
   468    0.0000    0.0000   -0.0165    0.0005   90.0000    0.0000    0.0025   467   468   469     1
   469    0.0000    0.0000   -0.0160    0.0005   90.0000    0.0000    0.0025   468   469   470     1
   470    0.0000    0.0000   -0.0155    0.0005   90.0000    0.0000    0.0025   469   470   471     1
   471    0.0000    0.0000   -0.0150    0.0005   90.0000    0.0000    0.0025   470   471   472     1
   472    0.0000    0.0000   -0.0145    0.0005   90.0000    0.0000    0.0025   471   472   473     1
   473    0.0000    0.0000   -0.0140    0.0005   90.0000    0.0000    0.0025   472   473   474     1
   474    0.0000    0.0000   -0.0135    0.0005   90.0000    0.0000    0.0025   473   474   475     1
   475    0.0000    0.0000   -0.0130    0.0005   90.0000    0.0000    0.0025   474   475   476     1
   476    0.0000    0.0000   -0.0125    0.0005   90.0000    0.0000    0.0025   475   476   477     1
   477    0.0000    0.0000   -0.0120    0.0005   90.0000    0.0000    0.0025   476   477   478     1
   478    0.0000    0.0000   -0.0115    0.0005   90.0000    0.0000    0.0025   477   478   479     1
   479    0.0000    0.0000   -0.0110    0.0005   90.0000    0.0000    0.0025   478   479   480     1
   480    0.0000    0.0000   -0.0105    0.0005   90.0000    0.0000    0.0025   479   480   481     1
   481    0.0000    0.0000   -0.0100    0.0005   90.0000    0.0000    0.0025   480   481   482     1
   482    0.0000    0.0000   -0.0095    0.0005   90.0000    0.0000    0.0025   481   482   483     1
   483    0.0000    0.0000   -0.0090    0.0005   90.0000    0.0000    0.0025   482   483   484     1
   484    0.0000    0.0000   -0.0085    0.0005   90.0000    0.0000    0.0025   483   484   485     1
   485    0.0000    0.0000   -0.0080    0.0005   90.0000    0.0000    0.0025   484   485   486     1
   486    0.0000    0.0000   -0.0075    0.0005   90.0000    0.0000    0.0025   485   486   487     1
   487    0.0000    0.0000   -0.0070    0.0005   90.0000    0.0000    0.0025   486   487   488     1
   488    0.0000    0.0000   -0.0065    0.0005   90.0000    0.0000    0.0025   487   488   489     1
   489    0.0000    0.0000   -0.0060    0.0005   90.0000    0.0000    0.0025   488   489   490     1
   490    0.0000    0.0000   -0.0055    0.0005   90.0000    0.0000    0.0025   489   490   491     1
   491    0.0000    0.0000   -0.0050    0.0005   90.0000    0.0000    0.0025   490   491   492     1
   492    0.0000    0.0000   -0.0045    0.0005   90.0000    0.0000    0.0025   491   492   493     1
   493    0.0000    0.0000   -0.0040    0.0005   90.0000    0.0000    0.0025   492   493   494     1
   494    0.0000    0.0000   -0.0035    0.0005   90.0000    0.0000    0.0025   493   494   495     1
   495    0.0000    0.0000   -0.0030    0.0005   90.0000    0.0000    0.0025   494   495   496     1
   496    0.0000    0.0000   -0.0025    0.0005   90.0000    0.0000    0.0025   495   496   497     1
   497    0.0000    0.0000   -0.0020    0.0005   90.0000    0.0000    0.0025   496   497   498     1
   498    0.0000    0.0000   -0.0015    0.0005   90.0000    0.0000    0.0025   497   498   499     1
   499    0.0000    0.0000   -0.0010    0.0005   90.0000    0.0000    0.0025   498   499   500     1
   500    0.0000    0.0000   -0.0005    0.0005   90.0000    0.0000    0.0025   499   500   501     1
   501    0.0000    0.0000    0.0000    0.0005   90.0000    0.0000    0.0025   500   501   502     1
   502    0.0000    0.0000    0.0005    0.0005   90.0000    0.0000    0.0025   501   502   503     1
   503    0.0000    0.0000    0.0010    0.0005   90.0000    0.0000    0.0025   502   503   504     1
   504    0.0000    0.0000    0.0015    0.0005   90.0000    0.0000    0.0025   503   504   505     1
   505    0.0000    0.0000    0.0020    0.0005   90.0000    0.0000    0.0025   504   505   506     1
   506    0.0000    0.0000    0.0025    0.0005   90.0000    0.0000    0.0025   505   506   507     1
   507    0.0000    0.0000    0.0030    0.0005   90.0000    0.0000    0.0025   506   507   508     1
   508    0.0000    0.0000    0.0035    0.0005   90.0000    0.0000    0.0025   507   508   509     1
   509    0.0000    0.0000    0.0040    0.0005   90.0000    0.0000    0.0025   508   509   510     1
   510    0.0000    0.0000    0.0045    0.0005   90.0000    0.0000    0.0025   509   510   511     1
   511    0.0000    0.0000    0.0050    0.0005   90.0000    0.0000    0.0025   510   511   512     1
   512    0.0000    0.0000    0.0055    0.0005   90.0000    0.0000    0.0025   511   512   513     1
   513    0.0000    0.0000    0.0060    0.0005   90.0000    0.0000    0.0025   512   513   514     1
   514    0.0000    0.0000    0.0065    0.0005   90.0000    0.0000    0.0025   513   514   515     1
   515    0.0000    0.0000    0.0070    0.0005   90.0000    0.0000    0.0025   514   515   516     1
   516    0.0000    0.0000    0.0075    0.0005   90.0000    0.0000    0.0025   515   516   517     1
   517    0.0000    0.0000    0.0080    0.0005   90.0000    0.0000    0.0025   516   517   518     1
   518    0.0000    0.0000    0.0085    0.0005   90.0000    0.0000    0.0025   517   518   519     1
   519    0.0000    0.0000    0.0090    0.0005   90.0000    0.0000    0.0025   518   519   520     1
   520    0.0000    0.0000    0.0095    0.0005   90.0000    0.0000    0.0025   519   520   521     1
   521    0.0000    0.0000    0.0100    0.0005   90.0000    0.0000    0.0025   520   521   522     1
   522    0.0000    0.0000    0.0105    0.0005   90.0000    0.0000    0.0025   521   522   523     1
   523    0.0000    0.0000    0.0110    0.0005   90.0000    0.0000    0.0025   522   523   524     1
   524    0.0000    0.0000    0.0115    0.0005   90.0000    0.0000    0.0025   523   524   525     1
   525    0.0000    0.0000    0.0120    0.0005   90.0000    0.0000    0.0025   524   525   526     1
   526    0.0000    0.0000    0.0125    0.0005   90.0000    0.0000    0.0025   525   526   527     1
   527    0.0000    0.0000    0.0130    0.0005   90.0000    0.0000    0.0025   526   527   528     1
   528    0.0000    0.0000    0.0135    0.0005   90.0000    0.0000    0.0025   527   528   529     1
   529    0.0000    0.0000    0.0140    0.0005   90.0000    0.0000    0.0025   528   529   530     1
   530    0.0000    0.0000    0.0145    0.0005   90.0000    0.0000    0.0025   529   530   531     1
   531    0.0000    0.0000    0.0150    0.0005   90.0000    0.0000    0.0025   530   531   532     1
   532    0.0000    0.0000    0.0155    0.0005   90.0000    0.0000    0.0025   531   532   533     1
   533    0.0000    0.0000    0.0160    0.0005   90.0000    0.0000    0.0025   532   533   534     1
   534    0.0000    0.0000    0.0165    0.0005   90.0000    0.0000    0.0025   533   534   535     1
   535    0.0000    0.0000    0.0170    0.0005   90.0000    0.0000    0.0025   534   535   536     1
   536    0.0000    0.0000    0.0175    0.0005   90.0000    0.0000    0.0025   535   536   537     1
   537    0.0000    0.0000    0.0180    0.0005   90.0000    0.0000    0.0025   536   537   538     1
   538    0.0000    0.0000    0.0185    0.0005   90.0000    0.0000    0.0025   537   538   539     1
   539    0.0000    0.0000    0.0190    0.0005   90.0000    0.0000    0.0025   538   539   540     1
   540    0.0000    0.0000    0.0195    0.0005   90.0000    0.0000    0.0025   539   540   541     1
   541    0.0000    0.0000    0.0200    0.0005   90.0000    0.0000    0.0025   540   541   542     1
   542    0.0000    0.0000    0.0205    0.0005   90.0000    0.0000    0.0025   541   542   543     1
   543    0.0000    0.0000    0.0210    0.0005   90.0000    0.0000    0.0025   542   543   544     1
   544    0.0000    0.0000    0.0215    0.0005   90.0000    0.0000    0.0025   543   544   545     1
   545    0.0000    0.0000    0.0220    0.0005   90.0000    0.0000    0.0025   544   545   546     1
   546    0.0000    0.0000    0.0225    0.0005   90.0000    0.0000    0.0025   545   546   547     1
   547    0.0000    0.0000    0.0230    0.0005   90.0000    0.0000    0.0025   546   547   548     1
   548    0.0000    0.0000    0.0235    0.0005   90.0000    0.0000    0.0025   547   548   549     1
   549    0.0000    0.0000    0.0240    0.0005   90.0000    0.0000    0.0025   548   549   550     1
   550    0.0000    0.0000    0.0245    0.0005   90.0000    0.0000    0.0025   549   550   551     1
   551    0.0000    0.0000    0.0250    0.0005   90.0000    0.0000    0.0025   550   551   552     1
   552    0.0000    0.0000    0.0255    0.0005   90.0000    0.0000    0.0025   551   552   553     1
   553    0.0000    0.0000    0.0260    0.0005   90.0000    0.0000    0.0025   552   553   554     1
   554    0.0000    0.0000    0.0265    0.0005   90.0000    0.0000    0.0025   553   554   555     1
   555    0.0000    0.0000    0.0270    0.0005   90.0000    0.0000    0.0025   554   555   556     1
   556    0.0000    0.0000    0.0275    0.0005   90.0000    0.0000    0.0025   555   556   557     1
   557    0.0000    0.0000    0.0280    0.0005   90.0000    0.0000    0.0025   556   557   558     1
   558    0.0000    0.0000    0.0285    0.0005   90.0000    0.0000    0.0025   557   558   559     1
   559    0.0000    0.0000    0.0290    0.0005   90.0000    0.0000    0.0025   558   559   560     1
   560    0.0000    0.0000    0.0295    0.0005   90.0000    0.0000    0.0025   559   560   561     1
   561    0.0000    0.0000    0.0300    0.0005   90.0000    0.0000    0.0025   560   561   562     1
   562    0.0000    0.0000    0.0305    0.0005   90.0000    0.0000    0.0025   561   562   563     1
   563    0.0000    0.0000    0.0310    0.0005   90.0000    0.0000    0.0025   562   563   564     1
   564    0.0000    0.0000    0.0315    0.0005   90.0000    0.0000    0.0025   563   564   565     1
   565    0.0000    0.0000    0.0320    0.0005   90.0000    0.0000    0.0025   564   565   566     1
   566    0.0000    0.0000    0.0325    0.0005   90.0000    0.0000    0.0025   565   566   567     1
   567    0.0000    0.0000    0.0330    0.0005   90.0000    0.0000    0.0025   566   567   568     1
   568    0.0000    0.0000    0.0335    0.0005   90.0000    0.0000    0.0025   567   568   569     1
   569    0.0000    0.0000    0.0340    0.0005   90.0000    0.0000    0.0025   568   569   570     1
   570    0.0000    0.0000    0.0345    0.0005   90.0000    0.0000    0.0025   569   570   571     1
   571    0.0000    0.0000    0.0350    0.0005   90.0000    0.0000    0.0025   570   571   572     1
   572    0.0000    0.0000    0.0355    0.0005   90.0000    0.0000    0.0025   571   572   573     1
   573    0.0000    0.0000    0.0360    0.0005   90.0000    0.0000    0.0025   572   573   574     1
   574    0.0000    0.0000    0.0365    0.0005   90.0000    0.0000    0.0025   573   574   575     1
   575    0.0000    0.0000    0.0370    0.0005   90.0000    0.0000    0.0025   574   575   576     1
   576    0.0000    0.0000    0.0375    0.0005   90.0000    0.0000    0.0025   575   576   577     1
   577    0.0000    0.0000    0.0380    0.0005   90.0000    0.0000    0.0025   576   577   578     1
   578    0.0000    0.0000    0.0385    0.0005   90.0000    0.0000    0.0025   577   578   579     1
   579    0.0000    0.0000    0.0390    0.0005   90.0000    0.0000    0.0025   578   579   580     1
   580    0.0000    0.0000    0.0395    0.0005   90.0000    0.0000    0.0025   579   580   581     1
   581    0.0000    0.0000    0.0400    0.0005   90.0000    0.0000    0.0025   580   581   582     1
   582    0.0000    0.0000    0.0405    0.0005   90.0000    0.0000    0.0025   581   582   583     1
   583    0.0000    0.0000    0.0410    0.0005   90.0000    0.0000    0.0025   582   583   584     1
   584    0.0000    0.0000    0.0415    0.0005   90.0000    0.0000    0.0025   583   584   585     1
   585    0.0000    0.0000    0.0420    0.0005   90.0000    0.0000    0.0025   584   585   586     1
   586    0.0000    0.0000    0.0425    0.0005   90.0000    0.0000    0.0025   585   586   587     1
   587    0.0000    0.0000    0.0430    0.0005   90.0000    0.0000    0.0025   586   587   588     1
   588    0.0000    0.0000    0.0435    0.0005   90.0000    0.0000    0.0025   587   588   589     1
   589    0.0000    0.0000    0.0440    0.0005   90.0000    0.0000    0.0025   588   589   590     1
   590    0.0000    0.0000    0.0445    0.0005   90.0000    0.0000    0.0025   589   590   591     1
   591    0.0000    0.0000    0.0450    0.0005   90.0000    0.0000    0.0025   590   591   592     1
   592    0.0000    0.0000    0.0455    0.0005   90.0000    0.0000    0.0025   591   592   593     1
   593    0.0000    0.0000    0.0460    0.0005   90.0000    0.0000    0.0025   592   593   594     1
   594    0.0000    0.0000    0.0465    0.0005   90.0000    0.0000    0.0025   593   594   595     1
   595    0.0000    0.0000    0.0470    0.0005   90.0000    0.0000    0.0025   594   595   596     1
   596    0.0000    0.0000    0.0475    0.0005   90.0000    0.0000    0.0025   595   596   597     1
   597    0.0000    0.0000    0.0480    0.0005   90.0000    0.0000    0.0025   596   597   598     1
   598    0.0000    0.0000    0.0485    0.0005   90.0000    0.0000    0.0025   597   598   599     1
   599    0.0000    0.0000    0.0490    0.0005   90.0000    0.0000    0.0025   598   599   600     1
   600    0.0000    0.0000    0.0495    0.0005   90.0000    0.0000    0.0025   599   600   601     1
   601    0.0000    0.0000    0.0500    0.0005   90.0000    0.0000    0.0025   600   601   602     1
   602    0.0000    0.0000    0.0504    0.0005   90.0000    0.0000    0.0025   601   602   603     1
   603    0.0000    0.0000    0.0509    0.0005   90.0000    0.0000    0.0025   602   603   604     1
   604    0.0000    0.0000    0.0514    0.0005   90.0000    0.0000    0.0025   603   604   605     1
   605    0.0000    0.0000    0.0519    0.0005   90.0000    0.0000    0.0025   604   605   606     1
   606    0.0000    0.0000    0.0524    0.0005   90.0000    0.0000    0.0025   605   606   607     1
   607    0.0000    0.0000    0.0529    0.0005   90.0000    0.0000    0.0025   606   607   608     1
   608    0.0000    0.0000    0.0534    0.0005   90.0000    0.0000    0.0025   607   608   609     1
   609    0.0000    0.0000    0.0539    0.0005   90.0000    0.0000    0.0025   608   609   610     1
   610    0.0000    0.0000    0.0544    0.0005   90.0000    0.0000    0.0025   609   610   611     1
   611    0.0000    0.0000    0.0549    0.0005   90.0000    0.0000    0.0025   610   611   612     1
   612    0.0000    0.0000    0.0554    0.0005   90.0000    0.0000    0.0025   611   612   613     1
   613    0.0000    0.0000    0.0559    0.0005   90.0000    0.0000    0.0025   612   613   614     1
   614    0.0000    0.0000    0.0564    0.0005   90.0000    0.0000    0.0025   613   614   615     1
   615    0.0000    0.0000    0.0569    0.0005   90.0000    0.0000    0.0025   614   615   616     1
   616    0.0000    0.0000    0.0574    0.0005   90.0000    0.0000    0.0025   615   616   617     1
   617    0.0000    0.0000    0.0579    0.0005   90.0000    0.0000    0.0025   616   617   618     1
   618    0.0000    0.0000    0.0584    0.0005   90.0000    0.0000    0.0025   617   618   619     1
   619    0.0000    0.0000    0.0589    0.0005   90.0000    0.0000    0.0025   618   619   620     1
   620    0.0000    0.0000    0.0594    0.0005   90.0000    0.0000    0.0025   619   620   621     1
   621    0.0000    0.0000    0.0599    0.0005   90.0000    0.0000    0.0025   620   621   622     1
   622    0.0000    0.0000    0.0604    0.0005   90.0000    0.0000    0.0025   621   622   623     1
   623    0.0000    0.0000    0.0609    0.0005   90.0000    0.0000    0.0025   622   623   624     1
   624    0.0000    0.0000    0.0614    0.0005   90.0000    0.0000    0.0025   623   624   625     1
   625    0.0000    0.0000    0.0619    0.0005   90.0000    0.0000    0.0025   624   625   626     1
   626    0.0000    0.0000    0.0624    0.0005   90.0000    0.0000    0.0025   625   626   627     1
   627    0.0000    0.0000    0.0629    0.0005   90.0000    0.0000    0.0025   626   627   628     1
   628    0.0000    0.0000    0.0634    0.0005   90.0000    0.0000    0.0025   627   628   629     1
   629    0.0000    0.0000    0.0639    0.0005   90.0000    0.0000    0.0025   628   629   630     1
   630    0.0000    0.0000    0.0644    0.0005   90.0000    0.0000    0.0025   629   630   631     1
   631    0.0000    0.0000    0.0649    0.0005   90.0000    0.0000    0.0025   630   631   632     1
   632    0.0000    0.0000    0.0654    0.0005   90.0000    0.0000    0.0025   631   632   633     1
   633    0.0000    0.0000    0.0659    0.0005   90.0000    0.0000    0.0025   632   633   634     1
   634    0.0000    0.0000    0.0664    0.0005   90.0000    0.0000    0.0025   633   634   635     1
   635    0.0000    0.0000    0.0669    0.0005   90.0000    0.0000    0.0025   634   635   636     1
   636    0.0000    0.0000    0.0674    0.0005   90.0000    0.0000    0.0025   635   636   637     1
   637    0.0000    0.0000    0.0679    0.0005   90.0000    0.0000    0.0025   636   637   638     1
   638    0.0000    0.0000    0.0684    0.0005   90.0000    0.0000    0.0025   637   638   639     1
   639    0.0000    0.0000    0.0689    0.0005   90.0000    0.0000    0.0025   638   639   640     1
   640    0.0000    0.0000    0.0694    0.0005   90.0000    0.0000    0.0025   639   640   641     1
   641    0.0000    0.0000    0.0699    0.0005   90.0000    0.0000    0.0025   640   641   642     1
   642    0.0000    0.0000    0.0704    0.0005   90.0000    0.0000    0.0025   641   642   643     1
   643    0.0000    0.0000    0.0709    0.0005   90.0000    0.0000    0.0025   642   643   644     1
   644    0.0000    0.0000    0.0714    0.0005   90.0000    0.0000    0.0025   643   644   645     1
   645    0.0000    0.0000    0.0719    0.0005   90.0000    0.0000    0.0025   644   645   646     1
   646    0.0000    0.0000    0.0724    0.0005   90.0000    0.0000    0.0025   645   646   647     1
   647    0.0000    0.0000    0.0729    0.0005   90.0000    0.0000    0.0025   646   647   648     1
   648    0.0000    0.0000    0.0734    0.0005   90.0000    0.0000    0.0025   647   648   649     1
   649    0.0000    0.0000    0.0739    0.0005   90.0000    0.0000    0.0025   648   649   650     1
   650    0.0000    0.0000    0.0744    0.0005   90.0000    0.0000    0.0025   649   650   651     1
   651    0.0000    0.0000    0.0749    0.0005   90.0000    0.0000    0.0025   650   651   652     1
   652    0.0000    0.0000    0.0754    0.0005   90.0000    0.0000    0.0025   651   652   653     1
   653    0.0000    0.0000    0.0759    0.0005   90.0000    0.0000    0.0025   652   653   654     1
   654    0.0000    0.0000    0.0764    0.0005   90.0000    0.0000    0.0025   653   654   655     1
   655    0.0000    0.0000    0.0769    0.0005   90.0000    0.0000    0.0025   654   655   656     1
   656    0.0000    0.0000    0.0774    0.0005   90.0000    0.0000    0.0025   655   656   657     1
   657    0.0000    0.0000    0.0779    0.0005   90.0000    0.0000    0.0025   656   657   658     1
   658    0.0000    0.0000    0.0784    0.0005   90.0000    0.0000    0.0025   657   658   659     1
   659    0.0000    0.0000    0.0789    0.0005   90.0000    0.0000    0.0025   658   659   660     1
   660    0.0000    0.0000    0.0794    0.0005   90.0000    0.0000    0.0025   659   660   661     1
   661    0.0000    0.0000    0.0799    0.0005   90.0000    0.0000    0.0025   660   661   662     1
   662    0.0000    0.0000    0.0804    0.0005   90.0000    0.0000    0.0025   661   662   663     1
   663    0.0000    0.0000    0.0809    0.0005   90.0000    0.0000    0.0025   662   663   664     1
   664    0.0000    0.0000    0.0814    0.0005   90.0000    0.0000    0.0025   663   664   665     1
   665    0.0000    0.0000    0.0819    0.0005   90.0000    0.0000    0.0025   664   665   666     1
   666    0.0000    0.0000    0.0824    0.0005   90.0000    0.0000    0.0025   665   666   667     1
   667    0.0000    0.0000    0.0829    0.0005   90.0000    0.0000    0.0025   666   667   668     1
   668    0.0000    0.0000    0.0834    0.0005   90.0000    0.0000    0.0025   667   668   669     1
   669    0.0000    0.0000    0.0839    0.0005   90.0000    0.0000    0.0025   668   669   670     1
   670    0.0000    0.0000    0.0844    0.0005   90.0000    0.0000    0.0025   669   670   671     1
   671    0.0000    0.0000    0.0849    0.0005   90.0000    0.0000    0.0025   670   671   672     1
   672    0.0000    0.0000    0.0854    0.0005   90.0000    0.0000    0.0025   671   672   673     1
   673    0.0000    0.0000    0.0859    0.0005   90.0000    0.0000    0.0025   672   673   674     1
   674    0.0000    0.0000    0.0864    0.0005   90.0000    0.0000    0.0025   673   674   675     1
   675    0.0000    0.0000    0.0869    0.0005   90.0000    0.0000    0.0025   674   675   676     1
   676    0.0000    0.0000    0.0874    0.0005   90.0000    0.0000    0.0025   675   676   677     1
   677    0.0000    0.0000    0.0879    0.0005   90.0000    0.0000    0.0025   676   677   678     1
   678    0.0000    0.0000    0.0884    0.0005   90.0000    0.0000    0.0025   677   678   679     1
   679    0.0000    0.0000    0.0889    0.0005   90.0000    0.0000    0.0025   678   679   680     1
   680    0.0000    0.0000    0.0894    0.0005   90.0000    0.0000    0.0025   679   680   681     1
   681    0.0000    0.0000    0.0899    0.0005   90.0000    0.0000    0.0025   680   681   682     1
   682    0.0000    0.0000    0.0904    0.0005   90.0000    0.0000    0.0025   681   682   683     1
   683    0.0000    0.0000    0.0909    0.0005   90.0000    0.0000    0.0025   682   683   684     1
   684    0.0000    0.0000    0.0914    0.0005   90.0000    0.0000    0.0025   683   684   685     1
   685    0.0000    0.0000    0.0919    0.0005   90.0000    0.0000    0.0025   684   685   686     1
   686    0.0000    0.0000    0.0924    0.0005   90.0000    0.0000    0.0025   685   686   687     1
   687    0.0000    0.0000    0.0929    0.0005   90.0000    0.0000    0.0025   686   687   688     1
   688    0.0000    0.0000    0.0934    0.0005   90.0000    0.0000    0.0025   687   688   689     1
   689    0.0000    0.0000    0.0939    0.0005   90.0000    0.0000    0.0025   688   689   690     1
   690    0.0000    0.0000    0.0944    0.0005   90.0000    0.0000    0.0025   689   690   691     1
   691    0.0000    0.0000    0.0949    0.0005   90.0000    0.0000    0.0025   690   691   692     1
   692    0.0000    0.0000    0.0954    0.0005   90.0000    0.0000    0.0025   691   692   693     1
   693    0.0000    0.0000    0.0959    0.0005   90.0000    0.0000    0.0025   692   693   694     1
   694    0.0000    0.0000    0.0964    0.0005   90.0000    0.0000    0.0025   693   694   695     1
   695    0.0000    0.0000    0.0969    0.0005   90.0000    0.0000    0.0025   694   695   696     1
   696    0.0000    0.0000    0.0974    0.0005   90.0000    0.0000    0.0025   695   696   697     1
   697    0.0000    0.0000    0.0979    0.0005   90.0000    0.0000    0.0025   696   697   698     1
   698    0.0000    0.0000    0.0984    0.0005   90.0000    0.0000    0.0025   697   698   699     1
   699    0.0000    0.0000    0.0989    0.0005   90.0000    0.0000    0.0025   698   699   700     1
   700    0.0000    0.0000    0.0994    0.0005   90.0000    0.0000    0.0025   699   700   701     1
   701    0.0000    0.0000    0.0999    0.0005   90.0000    0.0000    0.0025   700   701   702     1
   702    0.0000    0.0000    0.1004    0.0005   90.0000    0.0000    0.0025   701   702   703     1
   703    0.0000    0.0000    0.1009    0.0005   90.0000    0.0000    0.0025   702   703   704     1
   704    0.0000    0.0000    0.1014    0.0005   90.0000    0.0000    0.0025   703   704   705     1
   705    0.0000    0.0000    0.1019    0.0005   90.0000    0.0000    0.0025   704   705   706     1
   706    0.0000    0.0000    0.1024    0.0005   90.0000    0.0000    0.0025   705   706   707     1
   707    0.0000    0.0000    0.1029    0.0005   90.0000    0.0000    0.0025   706   707   708     1
   708    0.0000    0.0000    0.1034    0.0005   90.0000    0.0000    0.0025   707   708   709     1
   709    0.0000    0.0000    0.1039    0.0005   90.0000    0.0000    0.0025   708   709   710     1
   710    0.0000    0.0000    0.1044    0.0005   90.0000    0.0000    0.0025   709   710   711     1
   711    0.0000    0.0000    0.1049    0.0005   90.0000    0.0000    0.0025   710   711   712     1
   712    0.0000    0.0000    0.1054    0.0005   90.0000    0.0000    0.0025   711   712   713     1
   713    0.0000    0.0000    0.1059    0.0005   90.0000    0.0000    0.0025   712   713   714     1
   714    0.0000    0.0000    0.1064    0.0005   90.0000    0.0000    0.0025   713   714   715     1
   715    0.0000    0.0000    0.1069    0.0005   90.0000    0.0000    0.0025   714   715   716     1
   716    0.0000    0.0000    0.1074    0.0005   90.0000    0.0000    0.0025   715   716   717     1
   717    0.0000    0.0000    0.1079    0.0005   90.0000    0.0000    0.0025   716   717   718     1
   718    0.0000    0.0000    0.1084    0.0005   90.0000    0.0000    0.0025   717   718   719     1
   719    0.0000    0.0000    0.1089    0.0005   90.0000    0.0000    0.0025   718   719   720     1
   720    0.0000    0.0000    0.1094    0.0005   90.0000    0.0000    0.0025   719   720   721     1
   721    0.0000    0.0000    0.1099    0.0005   90.0000    0.0000    0.0025   720   721   722     1
   722    0.0000    0.0000    0.1104    0.0005   90.0000    0.0000    0.0025   721   722   723     1
   723    0.0000    0.0000    0.1109    0.0005   90.0000    0.0000    0.0025   722   723   724     1
   724    0.0000    0.0000    0.1114    0.0005   90.0000    0.0000    0.0025   723   724   725     1
   725    0.0000    0.0000    0.1119    0.0005   90.0000    0.0000    0.0025   724   725   726     1
   726    0.0000    0.0000    0.1124    0.0005   90.0000    0.0000    0.0025   725   726   727     1
   727    0.0000    0.0000    0.1129    0.0005   90.0000    0.0000    0.0025   726   727   728     1
   728    0.0000    0.0000    0.1134    0.0005   90.0000    0.0000    0.0025   727   728   729     1
   729    0.0000    0.0000    0.1139    0.0005   90.0000    0.0000    0.0025   728   729   730     1
   730    0.0000    0.0000    0.1144    0.0005   90.0000    0.0000    0.0025   729   730   731     1
   731    0.0000    0.0000    0.1149    0.0005   90.0000    0.0000    0.0025   730   731   732     1
   732    0.0000    0.0000    0.1154    0.0005   90.0000    0.0000    0.0025   731   732   733     1
   733    0.0000    0.0000    0.1159    0.0005   90.0000    0.0000    0.0025   732   733   734     1
   734    0.0000    0.0000    0.1164    0.0005   90.0000    0.0000    0.0025   733   734   735     1
   735    0.0000    0.0000    0.1169    0.0005   90.0000    0.0000    0.0025   734   735   736     1
   736    0.0000    0.0000    0.1174    0.0005   90.0000    0.0000    0.0025   735   736   737     1
   737    0.0000    0.0000    0.1179    0.0005   90.0000    0.0000    0.0025   736   737   738     1
   738    0.0000    0.0000    0.1184    0.0005   90.0000    0.0000    0.0025   737   738   739     1
   739    0.0000    0.0000    0.1189    0.0005   90.0000    0.0000    0.0025   738   739   740     1
   740    0.0000    0.0000    0.1194    0.0005   90.0000    0.0000    0.0025   739   740   741     1
   741    0.0000    0.0000    0.1199    0.0005   90.0000    0.0000    0.0025   740   741   742     1
   742    0.0000    0.0000    0.1204    0.0005   90.0000    0.0000    0.0025   741   742   743     1
   743    0.0000    0.0000    0.1209    0.0005   90.0000    0.0000    0.0025   742   743   744     1
   744    0.0000    0.0000    0.1214    0.0005   90.0000    0.0000    0.0025   743   744   745     1
   745    0.0000    0.0000    0.1219    0.0005   90.0000    0.0000    0.0025   744   745   746     1
   746    0.0000    0.0000    0.1224    0.0005   90.0000    0.0000    0.0025   745   746   747     1
   747    0.0000    0.0000    0.1229    0.0005   90.0000    0.0000    0.0025   746   747   748     1
   748    0.0000    0.0000    0.1234    0.0005   90.0000    0.0000    0.0025   747   748   749     1
   749    0.0000    0.0000    0.1239    0.0005   90.0000    0.0000    0.0025   748   749   750     1
   750    0.0000    0.0000    0.1244    0.0005   90.0000    0.0000    0.0025   749   750   751     1
   751    0.0000    0.0000    0.1249    0.0005   90.0000    0.0000    0.0025   750   751   752     1
   752    0.0000    0.0000    0.1254    0.0005   90.0000    0.0000    0.0025   751   752   753     1
   753    0.0000    0.0000    0.1259    0.0005   90.0000    0.0000    0.0025   752   753   754     1
   754    0.0000    0.0000    0.1264    0.0005   90.0000    0.0000    0.0025   753   754   755     1
   755    0.0000    0.0000    0.1269    0.0005   90.0000    0.0000    0.0025   754   755   756     1
   756    0.0000    0.0000    0.1274    0.0005   90.0000    0.0000    0.0025   755   756   757     1
   757    0.0000    0.0000    0.1279    0.0005   90.0000    0.0000    0.0025   756   757   758     1
   758    0.0000    0.0000    0.1284    0.0005   90.0000    0.0000    0.0025   757   758   759     1
   759    0.0000    0.0000    0.1289    0.0005   90.0000    0.0000    0.0025   758   759   760     1
   760    0.0000    0.0000    0.1294    0.0005   90.0000    0.0000    0.0025   759   760   761     1
   761    0.0000    0.0000    0.1299    0.0005   90.0000    0.0000    0.0025   760   761   762     1
   762    0.0000    0.0000    0.1304    0.0005   90.0000    0.0000    0.0025   761   762   763     1
   763    0.0000    0.0000    0.1309    0.0005   90.0000    0.0000    0.0025   762   763   764     1
   764    0.0000    0.0000    0.1314    0.0005   90.0000    0.0000    0.0025   763   764   765     1
   765    0.0000    0.0000    0.1319    0.0005   90.0000    0.0000    0.0025   764   765   766     1
   766    0.0000    0.0000    0.1324    0.0005   90.0000    0.0000    0.0025   765   766   767     1
   767    0.0000    0.0000    0.1329    0.0005   90.0000    0.0000    0.0025   766   767   768     1
   768    0.0000    0.0000    0.1334    0.0005   90.0000    0.0000    0.0025   767   768   769     1
   769    0.0000    0.0000    0.1339    0.0005   90.0000    0.0000    0.0025   768   769   770     1
   770    0.0000    0.0000    0.1344    0.0005   90.0000    0.0000    0.0025   769   770   771     1
   771    0.0000    0.0000    0.1349    0.0005   90.0000    0.0000    0.0025   770   771   772     1
   772    0.0000    0.0000    0.1354    0.0005   90.0000    0.0000    0.0025   771   772   773     1
   773    0.0000    0.0000    0.1359    0.0005   90.0000    0.0000    0.0025   772   773   774     1
   774    0.0000    0.0000    0.1364    0.0005   90.0000    0.0000    0.0025   773   774   775     1
[...]
  295.00      0.00     -9.87  -999.99    -9.87      0.0000     -0.00 LINEAR 1.4188E-001   -117.64 0.0000E+000      0.00
  296.00      0.00     -9.77  -999.99    -9.77      0.0000     -0.00 LINEAR 1.4358E-001   -147.68 0.0000E+000      0.00
  297.00      0.00     -7.78  -999.99    -7.78      0.0000     -0.00 LINEAR 1.8052E-001   -171.04 0.0000E+000      0.00
  298.00      0.00     -5.45  -999.99    -5.45      0.0000     -0.00 LINEAR 2.3604E-001    175.42 0.0000E+000      0.00
  299.00      0.00     -3.44  -999.99    -3.44      0.0000     -0.00 LINEAR 2.9756E-001    167.81 0.0000E+000      0.00
  300.00      0.00     -1.82  -999.99    -1.82      0.0000     -0.00 LINEAR 3.5867E-001    163.36 0.0000E+000      0.00
  301.00      0.00     -0.53  -999.99    -0.53      0.0000     -0.00 LINEAR 4.1585E-001    160.72 0.0000E+000      0.00
  302.00      0.00      0.47  -999.99     0.47      0.0000     -0.00 LINEAR 4.6682E-001    159.19 0.0000E+000      0.00
  303.00      0.00      1.24  -999.99     1.24      0.0000     -0.00 LINEAR 5.1004E-001    158.41 0.0000E+000      0.00
  304.00      0.00      1.81  -999.99     1.81      0.0000     -0.00 LINEAR 5.4443E-001    158.20 0.0000E+000      0.00
  305.00      0.00      2.20  -999.99     2.20      0.0000     -0.00 LINEAR 5.6934E-001    158.44 0.0000E+000      0.00
  306.00      0.00      2.42  -999.99     2.42      0.0000     -0.00 LINEAR 5.8443E-001    159.09 0.0000E+000      0.00
  307.00      0.00      2.50  -999.99     2.50      0.0000     -0.00 LINEAR 5.8972E-001    160.14 0.0000E+000      0.00
  308.00      0.00      2.44  -999.99     2.44      0.0000     -0.00 LINEAR 5.8552E-001    161.60 0.0000E+000      0.00
  309.00      0.00      2.24  -999.99     2.24      0.0000     -0.00 LINEAR 5.7246E-001    163.53 0.0000E+000      0.00
  310.00      0.00      1.92  -999.99     1.92      0.0000     -0.00 LINEAR 5.5147E-001    165.99 0.0000E+000      0.00
  311.00      0.00      1.47  -999.99     1.47      0.0000     -0.00 LINEAR 5.2377E-001    169.10 0.0000E+000      0.00
  312.00      0.00      0.91  -999.99     0.91      0.0000     -0.00 LINEAR 4.9095E-001    173.02 0.0000E+000      0.00
  313.00      0.00      0.25  -999.99     0.25      0.0000     -0.00 LINEAR 4.5497E-001    177.98 0.0000E+000      0.00
  314.00      0.00     -0.48  -999.99    -0.48      0.0000     -0.00 LINEAR 4.1827E-001   -175.78 0.0000E+000      0.00
  315.00      0.00     -1.23  -999.99    -1.23      0.0000     -0.00 LINEAR 3.8389E-001   -167.96 0.0000E+000      0.00
  316.00      0.00     -1.90  -999.99    -1.90      0.0000     -0.00 LINEAR 3.5536E-001   -158.39 0.0000E+000      0.00
  317.00      0.00     -2.37  -999.99    -2.37      0.0000     -0.00 LINEAR 3.3648E-001   -147.18 0.0000E+000      0.00
  318.00      0.00     -2.53  -999.99    -2.53      0.0000     -0.00 LINEAR 3.3031E-001   -134.95 0.0000E+000      0.00
  319.00      0.00     -2.33  -999.99    -2.33      0.0000     -0.00 LINEAR 3.3807E-001   -122.76 0.0000E+000      0.00
  320.00      0.00     -1.82  -999.99    -1.82      0.0000     -0.00 LINEAR 3.5854E-001   -111.63 0.0000E+000      0.00
  321.00      0.00     -1.12  -999.99    -1.12      0.0000     -0.00 LINEAR 3.8878E-001   -102.15 0.0000E+000      0.00
  322.00      0.00     -0.34  -999.99    -0.34      0.0000     -0.00 LINEAR 4.2538E-001    -94.38 0.0000E+000      0.00
  323.00      0.00      0.44  -999.99     0.44      0.0000      0.00 LINEAR 4.6527E-001    -88.11 0.0000E+000      0.00
  324.00      0.00      1.17  -999.99     1.17      0.0000      0.00 LINEAR 5.0604E-001    -83.07 0.0000E+000      0.00
  325.00      0.00      1.83  -999.99     1.83      0.0000      0.00 LINEAR 5.4588E-001    -78.97 0.0000E+000      0.00
  326.00      0.00      2.41  -999.99     2.41      0.0000      0.00 LINEAR 5.8349E-001    -75.62 0.0000E+000      0.00
  327.00      0.00      2.91  -999.99     2.91      0.0000      0.00 LINEAR 6.1791E-001    -72.84 0.0000E+000      0.00
  328.00      0.00      3.33  -999.99     3.33      0.0000      0.00 LINEAR 6.4850E-001    -70.50 0.0000E+000      0.00
  329.00      0.00      3.67  -999.99     3.67      0.0000      0.00 LINEAR 6.7482E-001    -68.52 0.0000E+000      0.00
  330.00      0.00      3.95  -999.99     3.95      0.0000      0.00 LINEAR 6.9660E-001    -66.81 0.0000E+000      0.00
  331.00      0.00      4.16  -999.99     4.16      0.0000      0.00 LINEAR 7.1372E-001    -65.34 0.0000E+000      0.00
  332.00      0.00      4.31  -999.99     4.31      0.0000      0.00 LINEAR 7.2614E-001    -64.04 0.0000E+000      0.00
  333.00      0.00      4.40  -999.99     4.40      0.0000      0.00 LINEAR 7.3393E-001    -62.91 0.0000E+000      0.00
  334.00      0.00      4.44  -999.99     4.44      0.0000      0.00 LINEAR 7.3722E-001    -61.89 0.0000E+000      0.00
  335.00      0.00      4.43  -999.99     4.43      0.0000      0.00 LINEAR 7.3617E-001    -60.99 0.0000E+000      0.00
  336.00      0.00      4.37  -999.99     4.37      0.0000      0.00 LINEAR 7.3102E-001    -60.18 0.0000E+000      0.00
  337.00      0.00      4.26  -999.99     4.26      0.0000      0.00 LINEAR 7.2201E-001    -59.44 0.0000E+000      0.00
  338.00      0.00      4.11  -999.99     4.11      0.0000      0.00 LINEAR 7.0940E-001    -58.78 0.0000E+000      0.00
  339.00      0.00      3.91  -999.99     3.91      0.0000      0.00 LINEAR 6.9349E-001    -58.17 0.0000E+000      0.00
  340.00      0.00      3.67  -999.99     3.67      0.0000      0.00 LINEAR 6.7455E-001    -57.62 0.0000E+000      0.00
  341.00      0.00      3.39  -999.99     3.39      0.0000      0.00 LINEAR 6.5287E-001    -57.11 0.0000E+000      0.00
  342.00      0.00      3.06  -999.99     3.06      0.0000      0.00 LINEAR 6.2873E-001    -56.65 0.0000E+000      0.00
  343.00      0.00      2.69  -999.99     2.69      0.0000      0.00 LINEAR 6.0239E-001    -56.23 0.0000E+000      0.00
  344.00      0.00      2.27  -999.99     2.27      0.0000      0.00 LINEAR 5.7410E-001    -55.84 0.0000E+000      0.00
  345.00      0.00      1.80  -999.99     1.80      0.0000      0.00 LINEAR 5.4412E-001    -55.48 0.0000E+000      0.00
  346.00      0.00      1.29  -999.99     1.29      0.0000      0.00 LINEAR 5.1265E-001    -55.15 0.0000E+000      0.00
  347.00      0.00      0.71  -999.99     0.71      0.0000      0.00 LINEAR 4.7991E-001    -54.85 0.0000E+000      0.00
  348.00      0.00      0.08  -999.99     0.08      0.0000      0.00 LINEAR 4.4608E-001    -54.58 0.0000E+000      0.00
  349.00      0.00     -0.63  -999.99    -0.63      0.0000      0.00 LINEAR 4.1133E-001    -54.33 0.0000E+000      0.00
  350.00      0.00     -1.41  -999.99    -1.41      0.0000      0.00 LINEAR 3.7581E-001    -54.11 0.0000E+000      0.00
  351.00      0.00     -2.29  -999.99    -2.29      0.0000      0.00 LINEAR 3.3965E-001    -53.91 0.0000E+000      0.00
  352.00      0.00     -3.28  -999.99    -3.28      0.0000      0.00 LINEAR 3.0297E-001    -53.73 0.0000E+000      0.00
  353.00      0.00     -4.42  -999.99    -4.42      0.0000      0.00 LINEAR 2.6586E-001    -53.57 0.0000E+000      0.00
  354.00      0.00     -5.74  -999.99    -5.74      0.0000      0.00 LINEAR 2.2841E-001    -53.44 0.0000E+000      0.00
  355.00      0.00     -7.30  -999.99    -7.30      0.0000      0.00 LINEAR 1.9070E-001    -53.33 0.0000E+000      0.00
  356.00      0.00     -9.23  -999.99    -9.23      0.0000      0.00 LINEAR 1.5278E-001    -53.24 0.0000E+000      0.00
  357.00      0.00    -11.72  -999.99   -11.72      0.0000      0.00 LINEAR 1.1471E-001    -53.16 0.0000E+000      0.00
  358.00      0.00    -15.23  -999.99   -15.23      0.0000      0.00 LINEAR 7.6529E-002    -53.11 0.0000E+000      0.00
  359.00      0.00    -21.25  -999.99   -21.25      0.0000      0.00 LINEAR 3.8281E-002    -53.08 0.0000E+000      0.00


                              ---------- NORMALIZED GAIN ----------
                                            TOTAL  GAIN
                                   NORMALIZATION FACTOR: 4.44 db

    ---- ANGLES ----                ---- ANGLES ----                ---- ANGLES ----
    THETA      PHI        GAIN      THETA      PHI        GAIN      THETA      PHI       GAIN
   DEGREES   DEGREES        DB     DEGREES   DEGREES        DB     DEGREES   DEGREES       DB
      0.00      0.00  -1004.43      120.00      0.00     -6.26      240.00      0.00     -6.26
      1.00      0.00    -25.69      121.00      0.00     -4.97      241.00      0.00     -7.88
      2.00      0.00    -19.68      122.00      0.00     -3.97      242.00      0.00     -9.89
      3.00      0.00    -16.16      123.00      0.00     -3.20      243.00      0.00    -12.22
      4.00      0.00    -13.67      124.00      0.00     -2.63      244.00      0.00    -14.21
      5.00      0.00    -11.74      125.00      0.00     -2.24      245.00      0.00    -14.31
      6.00      0.00    -10.18      126.00      0.00     -2.02      246.00      0.00    -12.54
      7.00      0.00     -8.86      127.00      0.00     -1.94      247.00      0.00    -10.44
      8.00      0.00     -7.72      128.00      0.00     -2.00      248.00      0.00     -8.68
      9.00      0.00     -6.73      129.00      0.00     -2.20      249.00      0.00     -7.33
     10.00      0.00     -5.85      130.00      0.00     -2.52      250.00      0.00     -6.35
     11.00      0.00     -5.07      131.00      0.00     -2.97      251.00      0.00     -5.69
     12.00      0.00     -4.36      132.00      0.00     -3.53      252.00      0.00     -5.31
     13.00      0.00     -3.73      133.00      0.00     -4.19      253.00      0.00     -5.21
     14.00      0.00     -3.16      134.00      0.00     -4.92      254.00      0.00     -5.36
     15.00      0.00     -2.64      135.00      0.00     -5.67      255.00      0.00     -5.78
     16.00      0.00     -2.17      136.00      0.00     -6.34      256.00      0.00     -6.47
     17.00      0.00     -1.75      137.00      0.00     -6.81      257.00      0.00     -7.45
     18.00      0.00     -1.38      138.00      0.00     -6.97      258.00      0.00     -8.72
     19.00      0.00     -1.06      139.00      0.00     -6.77      259.00      0.00    -10.18
     20.00      0.00     -0.77      140.00      0.00     -6.26      260.00      0.00    -11.51
     21.00      0.00     -0.53      141.00      0.00     -5.56      261.00      0.00    -12.00
     22.00      0.00     -0.33      142.00      0.00     -4.78      262.00      0.00    -11.22
     23.00      0.00     -0.18      143.00      0.00     -4.00      263.00      0.00     -9.69
     24.00      0.00     -0.07      144.00      0.00     -3.27      264.00      0.00     -8.07
     25.00      0.00     -0.01      145.00      0.00     -2.61      265.00      0.00     -6.67
     26.00      0.00     -0.00      146.00      0.00     -2.03      266.00      0.00     -5.54
     27.00      0.00     -0.04      147.00      0.00     -1.53      267.00      0.00     -4.69
     28.00      0.00     -0.13      148.00      0.00     -1.11      268.00      0.00     -4.10
     29.00      0.00     -0.28      149.00      0.00     -0.77      269.00      0.00     -3.75
     30.00      0.00     -0.49      150.00      0.00     -0.49      270.00      0.00     -3.64
     31.00      0.00     -0.77      151.00      0.00     -0.28      271.00      0.00     -3.75
     32.00      0.00     -1.11      152.00      0.00     -0.13      272.00      0.00     -4.10
     33.00      0.00     -1.53      153.00      0.00     -0.04      273.00      0.00     -4.69
     34.00      0.00     -2.03      154.00      0.00     -0.00      274.00      0.00     -5.54
     35.00      0.00     -2.61      155.00      0.00     -0.01      275.00      0.00     -6.67
     36.00      0.00     -3.27      156.00      0.00     -0.07      276.00      0.00     -8.07
     37.00      0.00     -4.00      157.00      0.00     -0.18      277.00      0.00     -9.69
     38.00      0.00     -4.78      158.00      0.00     -0.33      278.00      0.00    -11.22
     39.00      0.00     -5.56      159.00      0.00     -0.53      279.00      0.00    -12.00
     40.00      0.00     -6.26      160.00      0.00     -0.77      280.00      0.00    -11.51
     41.00      0.00     -6.77      161.00      0.00     -1.06      281.00      0.00    -10.18
     42.00      0.00     -6.97      162.00      0.00     -1.38      282.00      0.00     -8.72
     43.00      0.00     -6.81      163.00      0.00     -1.75      283.00      0.00     -7.45
     44.00      0.00     -6.34      164.00      0.00     -2.17      284.00      0.00     -6.47
     45.00      0.00     -5.67      165.00      0.00     -2.64      285.00      0.00     -5.78
     46.00      0.00     -4.92      166.00      0.00     -3.16      286.00      0.00     -5.36
     47.00      0.00     -4.19      167.00      0.00     -3.73      287.00      0.00     -5.21
     48.00      0.00     -3.53      168.00      0.00     -4.36      288.00      0.00     -5.31
     49.00      0.00     -2.97      169.00      0.00     -5.07      289.00      0.00     -5.69
     50.00      0.00     -2.52      170.00      0.00     -5.85      290.00      0.00     -6.35
     51.00      0.00     -2.20      171.00      0.00     -6.73      291.00      0.00     -7.33
     52.00      0.00     -2.00      172.00      0.00     -7.72      292.00      0.00     -8.68
     53.00      0.00     -1.94      173.00      0.00     -8.86      293.00      0.00    -10.44
     54.00      0.00     -2.02      174.00      0.00    -10.18      294.00      0.00    -12.54
     55.00      0.00     -2.24      175.00      0.00    -11.74      295.00      0.00    -14.31
     56.00      0.00     -2.63      176.00      0.00    -13.67      296.00      0.00    -14.21
     57.00      0.00     -3.20      177.00      0.00    -16.16      297.00      0.00    -12.22
     58.00      0.00     -3.97      178.00      0.00    -19.68      298.00      0.00     -9.89
     59.00      0.00     -4.97      179.00      0.00    -25.69      299.00      0.00     -7.88
     60.00      0.00     -6.26      180.00      0.00  -1004.43      300.00      0.00     -6.26
     61.00      0.00     -7.88      181.00      0.00    -25.69      301.00      0.00     -4.97
     62.00      0.00     -9.89      182.00      0.00    -19.68      302.00      0.00     -3.97
     63.00      0.00    -12.22      183.00      0.00    -16.16      303.00      0.00     -3.20
     64.00      0.00    -14.21      184.00      0.00    -13.67      304.00      0.00     -2.63
     65.00      0.00    -14.31      185.00      0.00    -11.74      305.00      0.00     -2.24
     66.00      0.00    -12.54      186.00      0.00    -10.18      306.00      0.00     -2.02
     67.00      0.00    -10.44      187.00      0.00     -8.86      307.00      0.00     -1.94
     68.00      0.00     -8.68      188.00      0.00     -7.72      308.00      0.00     -2.00
     69.00      0.00     -7.33      189.00      0.00     -6.73      309.00      0.00     -2.20
     70.00      0.00     -6.35      190.00      0.00     -5.85      310.00      0.00     -2.52
     71.00      0.00     -5.69      191.00      0.00     -5.07      311.00      0.00     -2.97
     72.00      0.00     -5.31      192.00      0.00     -4.36      312.00      0.00     -3.53
     73.00      0.00     -5.21      193.00      0.00     -3.73      313.00      0.00     -4.19
     74.00      0.00     -5.36      194.00      0.00     -3.16      314.00      0.00     -4.92
     75.00      0.00     -5.78      195.00      0.00     -2.64      315.00      0.00     -5.67
     76.00      0.00     -6.47      196.00      0.00     -2.17      316.00      0.00     -6.34
     77.00      0.00     -7.45      197.00      0.00     -1.75      317.00      0.00     -6.81
     78.00      0.00     -8.72      198.00      0.00     -1.38      318.00      0.00     -6.97
     79.00      0.00    -10.18      199.00      0.00     -1.06      319.00      0.00     -6.77
     80.00      0.00    -11.51      200.00      0.00     -0.77      320.00      0.00     -6.26
     81.00      0.00    -12.00      201.00      0.00     -0.53      321.00      0.00     -5.56
     82.00      0.00    -11.22      202.00      0.00     -0.33      322.00      0.00     -4.78
     83.00      0.00     -9.69      203.00      0.00     -0.18      323.00      0.00     -4.00
     84.00      0.00     -8.07      204.00      0.00     -0.07      324.00      0.00     -3.27
     85.00      0.00     -6.67      205.00      0.00     -0.01      325.00      0.00     -2.61
     86.00      0.00     -5.54      206.00      0.00     -0.00      326.00      0.00     -2.03
     87.00      0.00     -4.69      207.00      0.00     -0.04      327.00      0.00     -1.53
     88.00      0.00     -4.10      208.00      0.00     -0.13      328.00      0.00     -1.11
     89.00      0.00     -3.75      209.00      0.00     -0.28      329.00      0.00     -0.77
     90.00      0.00     -3.64      210.00      0.00     -0.49      330.00      0.00     -0.49
     91.00      0.00     -3.75      211.00      0.00     -0.77      331.00      0.00     -0.28
     92.00      0.00     -4.10      212.00      0.00     -1.11      332.00      0.00     -0.13
     93.00      0.00     -4.69      213.00      0.00     -1.53      333.00      0.00     -0.04
     94.00      0.00     -5.54      214.00      0.00     -2.03      334.00      0.00      0.00
     95.00      0.00     -6.67      215.00      0.00     -2.61      335.00      0.00     -0.01
     96.00      0.00     -8.07      216.00      0.00     -3.27      336.00      0.00     -0.07
     97.00      0.00     -9.69      217.00      0.00     -4.00      337.00      0.00     -0.18
     98.00      0.00    -11.22      218.00      0.00     -4.78      338.00      0.00     -0.33
     99.00      0.00    -12.00      219.00      0.00     -5.56      339.00      0.00     -0.53
    100.00      0.00    -11.51      220.00      0.00     -6.26      340.00      0.00     -0.77
    101.00      0.00    -10.18      221.00      0.00     -6.77      341.00      0.00     -1.06
    102.00      0.00     -8.72      222.00      0.00     -6.97      342.00      0.00     -1.38
    103.00      0.00     -7.45      223.00      0.00     -6.81      343.00      0.00     -1.75
    104.00      0.00     -6.47      224.00      0.00     -6.34      344.00      0.00     -2.17
    105.00      0.00     -5.78      225.00      0.00     -5.67      345.00      0.00     -2.64
    106.00      0.00     -5.36      226.00      0.00     -4.92      346.00      0.00     -3.16
    107.00      0.00     -5.21      227.00      0.00     -4.19      347.00      0.00     -3.73
    108.00      0.00     -5.31      228.00      0.00     -3.53      348.00      0.00     -4.36
    109.00      0.00     -5.69      229.00      0.00     -2.97      349.00      0.00     -5.07
    110.00      0.00     -6.35      230.00      0.00     -2.52      350.00      0.00     -5.85
    111.00      0.00     -7.33      231.00      0.00     -2.20      351.00      0.00     -6.73
    112.00      0.00     -8.68      232.00      0.00     -2.00      352.00      0.00     -7.72
    113.00      0.00    -10.44      233.00      0.00     -1.94      353.00      0.00     -8.86
    114.00      0.00    -12.54      234.00      0.00     -2.02      354.00      0.00    -10.18
    115.00      0.00    -14.31      235.00      0.00     -2.24      355.00      0.00    -11.74
    116.00      0.00    -14.21      236.00      0.00     -2.63      356.00      0.00    -13.67
    117.00      0.00    -12.22      237.00      0.00     -3.20      357.00      0.00    -16.16
    118.00      0.00     -9.89      238.00      0.00     -3.97      358.00      0.00    -19.68
    119.00      0.00     -7.88      239.00      0.00     -4.97      359.00      0.00    -25.69



*****  DATA CARD N0.   9 XQ   0     0     0     0 0.00000E+000 0.00000E+000 0.00000E+000 0.00000E+000 0.00000E+000 0.00000E+000
*****  DATA CARD N0.  10 EN   0     0     0     0 0.00000E+000 0.00000E+000 0.00000E+000 0.00000E+000 0.00000E+000 0.00000E+000

  TOTAL RUN TIME: 13719 msec