


                                __________________________________________
                               |                                          |
                               | NUMERICAL ELECTROMAGNETICS CODE (nec2++) |
                               | Translated to 'C++' in Double Precision  |
                               |              Version 1.0.4 [2004-11-23]              |
                               |__________________________________________|



                               ---------------- COMMENTS ----------------
                                Dipole
                                Start of geometry



                                -------- STRUCTURE SPECIFICATION --------
                                COORDINATES MUST BE INPUT IN
                                METERS OR BE SCALED TO METERS
                                BEFORE STRUCTURE INPUT IS ENDED
  WIRE                                                                                 SEG FIRST  LAST  TAG
   No:        X1         Y1         Z1         X2         Y2         Z2       RADIUS   No:   SEG   SEG  No:

     1      0.0000     0.0000    -0.0375     0.0000     0.0000     0.0375     0.0025   181     1   181    1

     TOTAL SEGMENTS USED: 181   SEGMENTS IN A SYMMETRIC CELL: 181   SYMMETRY FLAG: 0


                               ---------- SEGMENTATION DATA ----------
                                        COORDINATES IN METERS
                            I+ AND I- INDICATE THE SEGMENTS BEFORE AND AFTER I

   SEG    COORDINATES OF SEGM CENTER     SEGM    ORIENTATION ANGLES    WIRE    CONNECTION DATA   TAG
   No:       X         Y         Z      LENGTH     ALPHA      BETA    RADIUS    I-     I    I+   NO:
     1    0.0000    0.0000   -0.0373    0.0004   90.0000    0.0000    0.0025     0     1     2     1
     2    0.0000    0.0000   -0.0369    0.0004   90.0000    0.0000    0.0025     1     2     3     1
     3    0.0000    0.0000   -0.0365    0.0004   90.0000    0.0000    0.0025     2     3     4     1
     4    0.0000    0.0000   -0.0360    0.0004   90.0000    0.0000    0.0025     3     4     5     1
     5    0.0000    0.0000   -0.0356    0.0004   90.0000    0.0000    0.0025     4     5     6     1
     6    0.0000    0.0000   -0.0352    0.0004   90.0000    0.0000    0.0025     5     6     7     1
     7    0.0000    0.0000   -0.0348    0.0004   90.0000    0.0000    0.0025     6     7     8     1
     8    0.0000    0.0000   -0.0344    0.0004   90.0000    0.0000    0.0025     7     8     9     1
     9    0.0000    0.0000   -0.0340    0.0004   90.0000    0.0000    0.0025     8     9    10     1
    10    0.0000    0.0000   -0.0336    0.0004   90.0000    0.0000    0.0025     9    10    11     1
    11    0.0000    0.0000   -0.0331    0.0004   90.0000    0.0000    0.0025    10    11    12     1
    12    0.0000    0.0000   -0.0327    0.0004   90.0000    0.0000    0.0025    11    12    13     1
    13    0.0000    0.0000   -0.0323    0.0004   90.0000    0.0000    0.0025    12    13    14     1
    14    0.0000    0.0000   -0.0319    0.0004   90.0000    0.0000    0.0025    13    14    15     1
    15    0.0000    0.0000   -0.0315    0.0004   90.0000    0.0000    0.0025    14    15    16     1
    16    0.0000    0.0000   -0.0311    0.0004   90.0000    0.0000    0.0025    15    16    17     1
    17    0.0000    0.0000   -0.0307    0.0004   90.0000    0.0000    0.0025    16    17    18     1
    18    0.0000    0.0000   -0.0302    0.0004   90.0000    0.0000    0.0025    17    18    19     1
    19    0.0000    0.0000   -0.0298    0.0004   90.0000    0.0000    0.0025    18    19    20     1
    20    0.0000    0.0000   -0.0294    0.0004   90.0000    0.0000    0.0025    19    20    21     1
    21    0.0000    0.0000   -0.0290    0.0004   90.0000    0.0000    0.0025    20    21    22     1
    22    0.0000    0.0000   -0.0286    0.0004   90.0000    0.0000    0.0025    21    22    23     1
    23    0.0000    0.0000   -0.0282    0.0004   90.0000    0.0000    0.0025    22    23    24     1
    24    0.0000    0.0000   -0.0278    0.0004   90.0000    0.0000    0.0025    23    24    25     1
    25    0.0000    0.0000   -0.0273    0.0004   90.0000    0.0000    0.0025    24    25    26     1
    26    0.0000    0.0000   -0.0269    0.0004   90.0000    0.0000    0.0025    25    26    27     1
    27    0.0000    0.0000   -0.0265    0.0004   90.0000    0.0000    0.0025    26    27    28     1
    28    0.0000    0.0000   -0.0261    0.0004   90.0000    0.0000    0.0025    27    28    29     1
    29    0.0000    0.0000   -0.0257    0.0004   90.0000    0.0000    0.0025    28    29    30     1
    30    0.0000    0.0000   -0.0253    0.0004   90.0000    0.0000    0.0025    29    30    31     1
    31    0.0000    0.0000   -0.0249    0.0004   90.0000    0.0000    0.0025    30    31    32     1
    32    0.0000    0.0000   -0.0244    0.0004   90.0000    0.0000    0.0025    31    32    33     1
    33    0.0000    0.0000   -0.0240    0.0004   90.0000    0.0000    0.0025    32    33    34     1
    34    0.0000    0.0000   -0.0236    0.0004   90.0000    0.0000    0.0025    33    34    35     1
    35    0.0000    0.0000   -0.0232    0.0004   90.0000    0.0000    0.0025    34    35    36     1
    36    0.0000    0.0000   -0.0228    0.0004   90.0000    0.0000    0.0025    35    36    37     1
    37    0.0000    0.0000   -0.0224    0.0004   90.0000    0.0000    0.0025    36    37    38     1
    38    0.0000    0.0000   -0.0220    0.0004   90.0000    0.0000    0.0025    37    38    39     1
    39    0.0000    0.0000   -0.0215    0.0004   90.0000    0.0000    0.0025    38    39    40     1
    40    0.0000    0.0000   -0.0211    0.0004   90.0000    0.0000    0.0025    39    40    41     1
    41    0.0000    0.0000   -0.0207    0.0004   90.0000    0.0000    0.0025    40    41    42     1
    42    0.0000    0.0000   -0.0203    0.0004   90.0000    0.0000    0.0025    41    42    43     1
    43    0.0000    0.0000   -0.0199    0.0004   90.0000    0.0000    0.0025    42    43    44     1
    44    0.0000    0.0000   -0.0195    0.0004   90.0000    0.0000    0.0025    43    44    45     1
    45    0.0000    0.0000   -0.0191    0.0004   90.0000    0.0000    0.0025    44    45    46     1
    46    0.0000    0.0000   -0.0186    0.0004   90.0000    0.0000    0.0025    45    46    47     1
    47    0.0000    0.0000   -0.0182    0.0004   90.0000    0.0000    0.0025    46    47    48     1
    48    0.0000    0.0000   -0.0178    0.0004   90.0000    0.0000    0.0025    47    48    49     1
    49    0.0000    0.0000   -0.0174    0.0004   90.0000    0.0000    0.0025    48    49    50     1
    50    0.0000    0.0000   -0.0170    0.0004   90.0000    0.0000    0.0025    49    50    51     1
    51    0.0000    0.0000   -0.0166    0.0004   90.0000    0.0000    0.0025    50    51    52     1
    52    0.0000    0.0000   -0.0162    0.0004   90.0000    0.0000    0.0025    51    52    53     1
    53    0.0000    0.0000   -0.0157    0.0004   90.0000    0.0000    0.0025    52    53    54     1
    54    0.0000    0.0000   -0.0153    0.0004   90.0000    0.0000    0.0025    53    54    55     1
    55    0.0000    0.0000   -0.0149    0.0004   90.0000    0.0000    0.0025    54    55    56     1
    56    0.0000    0.0000   -0.0145    0.0004   90.0000    0.0000    0.0025    55    56    57     1
    57    0.0000    0.0000   -0.0141    0.0004   90.0000    0.0000    0.0025    56    57    58     1
    58    0.0000    0.0000   -0.0137    0.0004   90.0000    0.0000    0.0025    57    58    59     1
    59    0.0000    0.0000   -0.0133    0.0004   90.0000    0.0000    0.0025    58    59    60     1
    60    0.0000    0.0000   -0.0128    0.0004   90.0000    0.0000    0.0025    59    60    61     1
    61    0.0000    0.0000   -0.0124    0.0004   90.0000    0.0000    0.0025    60    61    62     1
    62    0.0000    0.0000   -0.0120    0.0004   90.0000    0.0000    0.0025    61    62    63     1
    63    0.0000    0.0000   -0.0116    0.0004   90.0000    0.0000    0.0025    62    63    64     1
    64    0.0000    0.0000   -0.0112    0.0004   90.0000    0.0000    0.0025    63    64    65     1
    65    0.0000    0.0000   -0.0108    0.0004   90.0000    0.0000    0.0025    64    65    66     1
    66    0.0000    0.0000   -0.0104    0.0004   90.0000    0.0000    0.0025    65    66    67     1
    67    0.0000    0.0000   -0.0099    0.0004   90.0000    0.0000    0.0025    66    67    68     1
    68    0.0000    0.0000   -0.0095    0.0004   90.0000    0.0000    0.0025    67    68    69     1
    69    0.0000    0.0000   -0.0091    0.0004   90.0000    0.0000    0.0025    68    69    70     1
    70    0.0000    0.0000   -0.0087    0.0004   90.0000    0.0000    0.0025    69    70    71     1
    71    0.0000    0.0000   -0.0083    0.0004   90.0000    0.0000    0.0025    70    71    72     1
    72    0.0000    0.0000   -0.0079    0.0004   90.0000    0.0000    0.0025    71    72    73     1
    73    0.0000    0.0000   -0.0075    0.0004   90.0000    0.0000    0.0025    72    73    74     1
    74    0.0000    0.0000   -0.0070    0.0004   90.0000    0.0000    0.0025    73    74    75     1
    75    0.0000    0.0000   -0.0066    0.0004   90.0000    0.0000    0.0025    74    75    76     1
    76    0.0000    0.0000   -0.0062    0.0004   90.0000    0.0000    0.0025    75    76    77     1
    77    0.0000    0.0000   -0.0058    0.0004   90.0000    0.0000    0.0025    76    77    78     1
    78    0.0000    0.0000   -0.0054    0.0004   90.0000    0.0000    0.0025    77    78    79     1
    79    0.0000    0.0000   -0.0050    0.0004   90.0000    0.0000    0.0025    78    79    80     1
    80    0.0000    0.0000   -0.0046    0.0004   90.0000    0.0000    0.0025    79    80    81     1
    81    0.0000    0.0000   -0.0041    0.0004   90.0000    0.0000    0.0025    80    81    82     1
    82    0.0000    0.0000   -0.0037    0.0004   90.0000    0.0000    0.0025    81    82    83     1
    83    0.0000    0.0000   -0.0033    0.0004   90.0000    0.0000    0.0025    82    83    84     1
    84    0.0000    0.0000   -0.0029    0.0004   90.0000    0.0000    0.0025    83    84    85     1
    85    0.0000    0.0000   -0.0025    0.0004   90.0000    0.0000    0.0025    84    85    86     1
    86    0.0000    0.0000   -0.0021    0.0004   90.0000    0.0000    0.0025    85    86    87     1
    87    0.0000    0.0000   -0.0017    0.0004   90.0000    0.0000    0.0025    86    87    88     1
    88    0.0000    0.0000   -0.0012    0.0004   90.0000    0.0000    0.0025    87    88    89     1
    89    0.0000    0.0000   -0.0008    0.0004   90.0000    0.0000    0.0025    88    89    90     1
    90    0.0000    0.0000   -0.0004    0.0004   90.0000    0.0000    0.0025    89    90    91     1
    91    0.0000    0.0000    0.0000    0.0004   90.0000    0.0000    0.0025    90    91    92     1
    92    0.0000    0.0000    0.0004    0.0004   90.0000    0.0000    0.0025    91    92    93     1
    93    0.0000    0.0000    0.0008    0.0004   90.0000    0.0000    0.0025    92    93    94     1
    94    0.0000    0.0000    0.0012    0.0004   90.0000    0.0000    0.0025    93    94    95     1
    95    0.0000    0.0000    0.0017    0.0004   90.0000    0.0000    0.0025    94    95    96     1
    96    0.0000    0.0000    0.0021    0.0004   90.0000    0.0000    0.0025    95    96    97     1
    97    0.0000    0.0000    0.0025    0.0004   90.0000    0.0000    0.0025    96    97    98     1
    98    0.0000    0.0000    0.0029    0.0004   90.0000    0.0000    0.0025    97    98    99     1
    99    0.0000    0.0000    0.0033    0.0004   90.0000    0.0000    0.0025    98    99   100     1
   100    0.0000    0.0000    0.0037    0.0004   90.0000    0.0000    0.0025    99   100   101     1
   101    0.0000    0.0000    0.0041    0.0004   90.0000    0.0000    0.0025   100   101   102     1
   102    0.0000    0.0000    0.0046    0.0004   90.0000    0.0000    0.0025   101   102   103     1
   103    0.0000    0.0000    0.0050    0.0004   90.0000    0.0000    0.0025   102   103   104     1
   104    0.0000    0.0000    0.0054    0.0004   90.0000    0.0000    0.0025   103   104   105     1
   105    0.0000    0.0000    0.0058    0.0004   90.0000    0.0000    0.0025   104   105   106     1
   106    0.0000    0.0000    0.0062    0.0004   90.0000    0.0000    0.0025   105   106   107     1
   107    0.0000    0.0000    0.0066    0.0004   90.0000    0.0000    0.0025   106   107   108     1
   108    0.0000    0.0000    0.0070    0.0004   90.0000    0.0000    0.0025   107   108   109     1
   109    0.0000    0.0000    0.0075    0.0004   90.0000    0.0000    0.0025   108   109   110     1
   110    0.0000    0.0000    0.0079    0.0004   90.0000    0.0000    0.0025   109   110   111     1
   111    0.0000    0.0000    0.0083    0.0004   90.0000    0.0000    0.0025   110   111   112     1
   112    0.0000    0.0000    0.0087    0.0004   90.0000    0.0000    0.0025   111   112   113     1
   113    0.0000    0.0000    0.0091    0.0004   90.0000    0.0000    0.0025   112   113   114     1
   114    0.0000    0.0000    0.0095    0.0004   90.0000    0.0000    0.0025   113   114   115     1
   115    0.0000    0.0000    0.0099    0.0004   90.0000    0.0000    0.0025   114   115   116     1
   116    0.0000    0.0000    0.0104    0.0004   90.0000    0.0000    0.0025   115   116   117     1
   117    0.0000    0.0000    0.0108    0.0004   90.0000    0.0000    0.0025   116   117   118     1
   118    0.0000    0.0000    0.0112    0.0004   90.0000    0.0000    0.0025   117   118   119     1
   119    0.0000    0.0000    0.0116    0.0004   90.0000    0.0000    0.0025   118   119   120     1
   120    0.0000    0.0000    0.0120    0.0004   90.0000    0.0000    0.0025   119   120   121     1
   121    0.0000    0.0000    0.0124    0.0004   90.0000    0.0000    0.0025   120   121   122     1
   122    0.0000    0.0000    0.0128    0.0004   90.0000    0.0000    0.0025   121   122   123     1
   123    0.0000    0.0000    0.0133    0.0004   90.0000    0.0000    0.0025   122   123   124     1
   124    0.0000    0.0000    0.0137    0.0004   90.0000    0.0000    0.0025   123   124   125     1
   125    0.0000    0.0000    0.0141    0.0004   90.0000    0.0000    0.0025   124   125   126     1
   126    0.0000    0.0000    0.0145    0.0004   90.0000    0.0000    0.0025   125   126   127     1
   127    0.0000    0.0000    0.0149    0.0004   90.0000    0.0000    0.0025   126   127   128     1
   128    0.0000    0.0000    0.0153    0.0004   90.0000    0.0000    0.0025   127   128   129     1
   129    0.0000    0.0000    0.0157    0.0004   90.0000    0.0000    0.0025   128   129   130     1
   130    0.0000    0.0000    0.0162    0.0004   90.0000    0.0000    0.0025   129   130   131     1
   131    0.0000    0.0000    0.0166    0.0004   90.0000    0.0000    0.0025   130   131   132     1
   132    0.0000    0.0000    0.0170    0.0004   90.0000    0.0000    0.0025   131   132   133     1
   133    0.0000    0.0000    0.0174    0.0004   90.0000    0.0000    0.0025   132   133   134     1
   134    0.0000    0.0000    0.0178    0.0004   90.0000    0.0000    0.0025   133   134   135     1
   135    0.0000    0.0000    0.0182    0.0004   90.0000    0.0000    0.0025   134   135   136     1
   136    0.0000    0.0000    0.0186    0.0004   90.0000    0.0000    0.0025   135   136   137     1
   137    0.0000    0.0000    0.0191    0.0004   90.0000    0.0000    0.0025   136   137   138     1
   138    0.0000    0.0000    0.0195    0.0004   90.0000    0.0000    0.0025   137   138   139     1
   139    0.0000    0.0000    0.0199    0.0004   90.0000    0.0000    0.0025   138   139   140     1
   140    0.0000    0.0000    0.0203    0.0004   90.0000    0.0000    0.0025   139   140   141     1
   141    0.0000    0.0000    0.0207    0.0004   90.0000    0.0000    0.0025   140   141   142     1
   142    0.0000    0.0000    0.0211    0.0004   90.0000    0.0000    0.0025   141   142   143     1
   143    0.0000    0.0000    0.0215    0.0004   90.0000    0.0000    0.0025   142   143   144     1
   144    0.0000    0.0000    0.0220    0.0004   90.0000    0.0000    0.0025   143   144   145     1
   145    0.0000    0.0000    0.0224    0.0004   90.0000    0.0000    0.0025   144   145   146     1
   146    0.0000    0.0000    0.0228    0.0004   90.0000    0.0000    0.0025   145   146   147     1
   147    0.0000    0.0000    0.0232    0.0004   90.0000    0.0000    0.0025   146   147   148     1
   148    0.0000    0.0000    0.0236    0.0004   90.0000    0.0000    0.0025   147   148   149     1
   149    0.0000    0.0000    0.0240    0.0004   90.0000    0.0000    0.0025   148   149   150     1
   150    0.0000    0.0000    0.0244    0.0004   90.0000    0.0000    0.0025   149   150   151     1
   151    0.0000    0.0000    0.0249    0.0004   90.0000    0.0000    0.0025   150   151   152     1
   152    0.0000    0.0000    0.0253    0.0004   90.0000    0.0000    0.0025   151   152   153     1
   153    0.0000    0.0000    0.0257    0.0004   90.0000    0.0000    0.0025   152   153   154     1
   154    0.0000    0.0000    0.0261    0.0004   90.0000    0.0000    0.0025   153   154   155     1
   155    0.0000    0.0000    0.0265    0.0004   90.0000    0.0000    0.0025   154   155   156     1
   156    0.0000    0.0000    0.0269    0.0004   90.0000    0.0000    0.0025   155   156   157     1
   157    0.0000    0.0000    0.0273    0.0004   90.0000    0.0000    0.0025   156   157   158     1
   158    0.0000    0.0000    0.0278    0.0004   90.0000    0.0000    0.0025   157   158   159     1
   159    0.0000    0.0000    0.0282    0.0004   90.0000    0.0000    0.0025   158   159   160     1
   160    0.0000    0.0000    0.0286    0.0004   90.0000    0.0000    0.0025   159   160   161     1
   161    0.0000    0.0000    0.0290    0.0004   90.0000    0.0000    0.0025   160   161   162     1
   162    0.0000    0.0000    0.0294    0.0004   90.0000    0.0000    0.0025   161   162   163     1
   163    0.0000    0.0000    0.0298    0.0004   90.0000    0.0000    0.0025   162   163   164     1
   164    0.0000    0.0000    0.0302    0.0004   90.0000    0.0000    0.0025   163   164   165     1
   165    0.0000    0.0000    0.0307    0.0004   90.0000    0.0000    0.0025   164   165   166     1
   166    0.0000    0.0000    0.0311    0.0004   90.0000    0.0000    0.0025   165   166   167     1
   167    0.0000    0.0000    0.0315    0.0004   90.0000    0.0000    0.0025   166   167   168     1
   168    0.0000    0.0000    0.0319    0.0004   90.0000    0.0000    0.0025   167   168   169     1
   169    0.0000    0.0000    0.0323    0.0004   90.0000    0.0000    0.0025   168   169   170     1
   170    0.0000    0.0000    0.0327    0.0004   90.0000    0.0000    0.0025   169   170   171     1
   171    0.0000    0.0000    0.0331    0.0004   90.0000    0.0000    0.0025   170   171   172     1
   172    0.0000    0.0000    0.0336    0.0004   90.0000    0.0000    0.0025   171   172   173     1
   173    0.0000    0.0000    0.0340    0.0004   90.0000    0.0000    0.0025   172   173   174     1
   174    0.0000    0.0000    0.0344    0.0004   90.0000    0.0000    0.0025   173   174   175     1
   175    0.0000    0.0000    0.0348    0.0004   90.0000    0.0000    0.0025   174   175   176     1
   176    0.0000    0.0000    0.0352    0.0004   90.0000    0.0000    0.0025   175   176   177     1
   177    0.0000    0.0000    0.0356    0.0004   90.0000    0.0000    0.0025   176   177   178     1
   178    0.0000    0.0000    0.0360    0.0004   90.0000    0.0000    0.0025   177   178   179     1
   179    0.0000    0.0000    0.0365    0.0004   90.0000    0.0000    0.0025   178   179   180     1
   180    0.0000    0.0000    0.0369    0.0004   90.0000    0.0000    0.0025   179   180   181     1
   181    0.0000    0.0000    0.0373    0.0004   90.0000    0.0000    0.0025   180   181     0     1



*****  DATA CARD N0.   1 GN  -1     0     0     0 0.00000E+000 0.00000E+000 0.00000E+000 0.00000E+000 0.00000E+000 0.00000E+000
*****  DATA CARD N0.   2 PT  -1     0     0     0 0.00000E+000 0.00000E+000 0.00000E+000 0.00000E+000 0.00000E+000 0.00000E+000
*****  DATA CARD N0.   3 EK   0     0     0     0 0.00000E+000 0.00000E+000 0.00000E+000 0.00000E+000 0.00000E+000 0.00000E+000
*****  DATA CARD N0.   4 EX   0     1    91     0 1.00000E+000 0.00000E+000 0.00000E+000 0.00000E+000 0.00000E+000 0.00000E+000
*****  DATA CARD N0.   5 FR   0     1     0     0 2.00000E+003 0.00000E+000 0.00000E+000 0.00000E+000 0.00000E+000 0.00000E+000
*****  DATA CARD N0.   6 RP   0     1   360  1510 9.00000E+001 0.00000E+000 1.00000E+000 1.00000E+000 0.00000E+000 0.00000E+000


                               --------- FREQUENCY --------
                               FREQUENCY= 2.0000E+003 MHZ
                               WAVELENGTH=1.4990E-001 METERS


                        APPROXIMATE INTEGRATION EMPLOYED FOR SEGMENTS
                        THAT ARE MORE THAN 1.000 WAVELENGTHS APART
                        THE EXTENDED THIN WIRE KERNEL WILL BE USED



                          ------ STRUCTURE IMPEDANCE LOADING ------
                                 THIS STRUCTURE IS NOT LOADED



                            -------- ANTENNA ENVIRONMENT --------

                            FREE SPACE


                             ---------- MATRIX TIMING ----------
                               FILL= 111 msec  FACTOR: 79 msec


                        --------- ANTENNA INPUT PARAMETERS ---------
  TAG   SEG       VOLTAGE (VOLTS)         CURRENT (AMPS)         IMPEDANCE (OHMS)        ADMITTANCE (MHOS)     POWER
  NO.   NO.     REAL      IMAGINARY     REAL      IMAGINARY     REAL      IMAGINARY    REAL       IMAGINARY   (WATTS)
    1    91 1.0000E+000 0.0000E+000 7.4945E-003 1.8833E+001 2.1131E-005 -5.3099E-002 7.4945E-003 1.8833E+001 3.7472E-003


                               ---------- POWER BUDGET ---------
                               INPUT POWER   = 3.7472E-003 Watts
                               RADIATED POWER= 3.7472E-003 Watts
                               STRUCTURE LOSS= 0.0000E+000 Watts
                               NETWORK LOSS  = 0.0000E+000 Watts
                               EFFICIENCY    =  100.00 Percent


                             ---------- RADIATION PATTERNS -----------

 ---- ANGLES -----     --- DIRECTIVE GAINS ---      ---- POLARIZATION ----   ---- E(THETA) ----    ----- E(PHI) ------
  THETA      PHI       VERTC    HORIZ    TOTAL       AXIAL      TILT  SENSE   MAGNITUDE    PHASE    MAGNITUDE     PHASE
 DEGREES   DEGREES        DB       DB       DB       RATIO   DEGREES            VOLTS/M   DEGREES     VOLTS/M   DEGREES
   90.00      0.00      2.29  -999.99     2.29      0.0000      0.00 LINEAR 6.1672E-001     54.51 0.0000E+000      0.00
   90.00      1.00      2.29  -999.99     2.29      0.0000      0.00 LINEAR 6.1672E-001     54.51 0.0000E+000      0.00
   90.00      2.00      2.29  -999.99     2.29      0.0000      0.00 LINEAR 6.1672E-001     54.51 0.0000E+000      0.00
   90.00      3.00      2.29  -999.99     2.29      0.0000      0.00 LINEAR 6.1672E-001     54.51 0.0000E+000      0.00
   90.00      4.00      2.29  -999.99     2.29      0.0000      0.00 LINEAR 6.1672E-001     54.51 0.0000E+000      0.00
   90.00      5.00      2.29  -999.99     2.29      0.0000      0.00 LINEAR 6.1672E-001     54.51 0.0000E+000      0.00
   90.00      6.00      2.29  -999.99     2.29      0.0000      0.00 LINEAR 6.1672E-001     54.51 0.0000E+000      0.00
   90.00      7.00      2.29  -999.99     2.29      0.0000      0.00 LINEAR 6.1672E-001     54.51 0.0000E+000      0.00
   90.00      8.00      2.29  -999.99     2.29      0.0000      0.00 LINEAR 6.1672E-001     54.51 0.0000E+000      0.00
   90.00      9.00      2.29  -999.99     2.29      0.0000      0.00 LINEAR 6.1672E-001     54.51 0.0000E+000      0.00
   90.00     10.00      2.29  -999.99     2.29      0.0000      0.00 LINEAR 6.1672E-001     54.51 0.0000E+000      0.00
   90.00     11.00      2.29  -999.99     2.29      0.0000      0.00 LINEAR 6.1672E-001     54.51 0.0000E+000      0.00
   90.00     12.00      2.29  -999.99     2.29      0.0000      0.00 LINEAR 6.1672E-001     54.51 0.0000E+000      0.00
   90.00     13.00      2.29  -999.99     2.29      0.0000      0.00 LINEAR 6.1672E-001     54.51 0.0000E+000      0.00
   90.00     14.00      2.29  -999.99     2.29      0.0000      0.00 LINEAR 6.1672E-001     54.51 0.0000E+000      0.00
   90.00     15.00      2.29  -999.99     2.29      0.0000      0.00 LINEAR 6.1672E-001     54.51 0.0000E+000      0.00
   90.00     16.00      2.29  -999.99     2.29      0.0000      0.00 LINEAR 6.1672E-001     54.51 0.0000E+000      0.00
   90.00     17.00      2.29  -999.99     2.29      0.0000      0.00 LINEAR 6.1672E-001     54.51 0.0000E+000      0.00
   90.00     18.00      2.29  -999.99     2.29      0.0000      0.00 LINEAR 6.1672E-001     54.51 0.0000E+000      0.00
   90.00     19.00      2.29  -999.99     2.29      0.0000      0.00 LINEAR 6.1672E-001     54.51 0.0000E+000      0.00
   90.00     20.00      2.29  -999.99     2.29      0.0000      0.00 LINEAR 6.1672E-001     54.51 0.0000E+000      0.00
   90.00     21.00      2.29  -999.99     2.29      0.0000      0.00 LINEAR 6.1672E-001     54.51 0.0000E+000      0.00
   90.00     22.00      2.29  -999.99     2.29      0.0000      0.00 LINEAR 6.1672E-001     54.51 0.0000E+000      0.00
   90.00     23.00      2.29  -999.99     2.29      0.0000      0.00 LINEAR 6.1672E-001     54.51 0.0000E+000      0.00
   90.00     24.00      2.29  -999.99     2.29      0.0000      0.00 LINEAR 6.1672E-001     54.51 0.0000E+000      0.00
   90.00     25.00      2.29  -999.99     2.29      0.0000      0.00 LINEAR 6.1672E-001     54.51 0.0000E+000      0.00
   90.00     26.00      2.29  -999.99     2.29      0.0000      0.00 LINEAR 6.1672E-001     54.51 0.0000E+000      0.00
   90.00     27.00      2.29  -999.99     2.29      0.0000      0.00 LINEAR 6.1672E-001     54.51 0.0000E+000      0.00
   90.00     28.00      2.29  -999.99     2.29      0.0000      0.00 LINEAR 6.1672E-001     54.51 0.0000E+000      0.00
   90.00     29.00      2.29  -999.99     2.29      0.0000      0.00 LINEAR 6.1672E-001     54.51 0.0000E+000      0.00
   90.00     30.00      2.29  -999.99     2.29      0.0000      0.00 LINEAR 6.1672E-001     54.51 0.0000E+000      0.00
   90.00     31.00      2.29  -999.99     2.29      0.0000      0.00 LINEAR 6.1672E-001     54.51 0.0000E+000      0.00
   90.00     32.00      2.29  -999.99     2.29      0.0000      0.00 LINEAR 6.1672E-001     54.51 0.0000E+000      0.00
   90.00     33.00      2.29  -999.99     2.29      0.0000      0.00 LINEAR 6.1672E-001     54.51 0.0000E+000      0.00
   90.00     34.00      2.29  -999.99     2.29      0.0000      0.00 LINEAR 6.1672E-001     54.51 0.0000E+000      0.00
   90.00     35.00      2.29  -999.99     2.29      0.0000      0.00 LINEAR 6.1672E-001     54.51 0.0000E+000      0.00
   90.00     36.00      2.29  -999.99     2.29      0.0000      0.00 LINEAR 6.1672E-001     54.51 0.0000E+000      0.00
   90.00     37.00      2.29  -999.99     2.29      0.0000      0.00 LINEAR 6.1672E-001     54.51 0.0000E+000      0.00
   90.00     38.00      2.29  -999.99     2.29      0.0000      0.00 LINEAR 6.1672E-001     54.51 0.0000E+000      0.00
   90.00     39.00      2.29  -999.99     2.29      0.0000      0.00 LINEAR 6.1672E-001     54.51 0.0000E+000      0.00
   90.00     40.00      2.29  -999.99     2.29      0.0000      0.00 LINEAR 6.1672E-001     54.51 0.0000E+000      0.00
   90.00     41.00      2.29  -999.99     2.29      0.0000      0.00 LINEAR 6.1672E-001     54.51 0.0000E+000      0.00
   90.00     42.00      2.29  -999.99     2.29      0.0000      0.00 LINEAR 6.1672E-001     54.51 0.0000E+000      0.00
   90.00     43.00      2.29  -999.99     2.29      0.0000      0.00 LINEAR 6.1672E-001     54.51 0.0000E+000      0.00
   90.00     44.00      2.29  -999.99     2.29      0.0000      0.00 LINEAR 6.1672E-001     54.51 0.0000E+000      0.00
   90.00     45.00      2.29  -999.99     2.29      0.0000      0.00 LINEAR 6.1672E-001     54.51 0.0000E+000      0.00
   90.00     46.00      2.29  -999.99     2.29      0.0000      0.00 LINEAR 6.1672E-001     54.51 0.0000E+000      0.00
   90.00     47.00      2.29  -999.99     2.29      0.0000      0.00 LINEAR 6.1672E-001     54.51 0.0000E+000      0.00
   90.00     48.00      2.29  -999.99     2.29      0.0000      0.00 LINEAR 6.1672E-001     54.51 0.0000E+000      0.00
   90.00     49.00      2.29  -999.99     2.29      0.0000      0.00 LINEAR 6.1672E-001     54.51 0.0000E+000      0.00
   90.00     50.00      2.29  -999.99     2.29      0.0000      0.00 LINEAR 6.1672E-001     54.51 0.0000E+000      0.00
   90.00     51.00      2.29  -999.99     2.29      0.0000      0.00 LINEAR 6.1672E-001     54.51 0.0000E+000      0.00
   90.00     52.00      2.29  -999.99     2.29      0.0000      0.00 LINEAR 6.1672E-001     54.51 0.0000E+000      0.00
   90.00     53.00      2.29  -999.99     2.29      0.0000      0.00 LINEAR 6.1672E-001     54.51 0.0000E+000      0.00
   90.00     54.00      2.29  -999.99     2.29      0.0000      0.00 LINEAR 6.1672E-001     54.51 0.0000E+000      0.00
   90.00     55.00      2.29  -999.99     2.29      0.0000      0.00 LINEAR 6.1672E-001     54.51 0.0000E+000      0.00
   90.00     56.00      2.29  -999.99     2.29      0.0000      0.00 LINEAR 6.1672E-001     54.51 0.0000E+000      0.00
   90.00     57.00      2.29  -999.99     2.29      0.0000      0.00 LINEAR 6.1672E-001     54.51 0.0000E+000      0.00
   90.00     58.00      2.29  -999.99     2.29      0.0000      0.00 LINEAR 6.1672E-001     54.51 0.0000E+000      0.00
   90.00     59.00      2.29  -999.99     2.29      0.0000      0.00 LINEAR 6.1672E-001     54.51 0.0000E+000      0.00
   90.00     60.00      2.29  -999.99     2.29      0.0000      0.00 LINEAR 6.1672E-001     54.51 0.0000E+000      0.00
   90.00     61.00      2.29  -999.99     2.29      0.0000      0.00 LINEAR 6.1672E-001     54.51 0.0000E+000      0.00
   90.00     62.00      2.29  -999.99     2.29      0.0000      0.00 LINEAR 6.1672E-001     54.51 0.0000E+000      0.00
   90.00     63.00      2.29  -999.99     2.29      0.0000      0.00 LINEAR 6.1672E-001     54.51 0.0000E+000      0.00
   90.00     64.00      2.29  -999.99     2.29      0.0000      0.00 LINEAR 6.1672E-001     54.51 0.0000E+000      0.00
   90.00     65.00      2.29  -999.99     2.29      0.0000      0.00 LINEAR 6.1672E-001     54.51 0.0000E+000      0.00
   90.00     66.00      2.29  -999.99     2.29      0.0000      0.00 LINEAR 6.1672E-001     54.51 0.0000E+000      0.00
   90.00     67.00      2.29  -999.99     2.29      0.0000      0.00 LINEAR 6.1672E-001     54.51 0.0000E+000      0.00
   90.00     68.00      2.29  -999.99     2.29      0.0000      0.00 LINEAR 6.1672E-001     54.51 0.0000E+000      0.00
   90.00     69.00      2.29  -999.99     2.29      0.0000      0.00 LINEAR 6.1672E-001     54.51 0.0000E+000      0.00
   90.00     70.00      2.29  -999.99     2.29      0.0000      0.00 LINEAR 6.1672E-001     54.51 0.0000E+000      0.00
   90.00     71.00      2.29  -999.99     2.29      0.0000      0.00 LINEAR 6.1672E-001     54.51 0.0000E+000      0.00
   90.00     72.00      2.29  -999.99     2.29      0.0000      0.00 LINEAR 6.1672E-001     54.51 0.0000E+000      0.00
   90.00     73.00      2.29  -999.99     2.29      0.0000      0.00 LINEAR 6.1672E-001     54.51 0.0000E+000      0.00
   90.00     74.00      2.29  -999.99     2.29      0.0000      0.00 LINEAR 6.1672E-001     54.51 0.0000E+000      0.00
   90.00     75.00      2.29  -999.99     2.29      0.0000      0.00 LINEAR 6.1672E-001     54.51 0.0000E+000      0.00
   90.00     76.00      2.29  -999.99     2.29      0.0000      0.00 LINEAR 6.1672E-001     54.51 0.0000E+000      0.00
   90.00     77.00      2.29  -999.99     2.29      0.0000      0.00 LINEAR 6.1672E-001     54.51 0.0000E+000      0.00
   90.00     78.00      2.29  -999.99     2.29      0.0000      0.00 LINEAR 6.1672E-001     54.51 0.0000E+000      0.00
   90.00     79.00      2.29  -999.99     2.29      0.0000      0.00 LINEAR 6.1672E-001     54.51 0.0000E+000      0.00
   90.00     80.00      2.29  -999.99     2.29      0.0000      0.00 LINEAR 6.1672E-001     54.51 0.0000E+000      0.00
   90.00     81.00      2.29  -999.99     2.29      0.0000      0.00 LINEAR 6.1672E-001     54.51 0.0000E+000      0.00
   90.00     82.00      2.29  -999.99     2.29      0.0000      0.00 LINEAR 6.1672E-001     54.51 0.0000E+000      0.00
   90.00     83.00      2.29  -999.99     2.29      0.0000      0.00 LINEAR 6.1672E-001     54.51 0.0000E+000      0.00
   90.00     84.00      2.29  -999.99     2.29      0.0000      0.00 LINEAR 6.1672E-001     54.51 0.0000E+000      0.00
   90.00     85.00      2.29  -999.99     2.29      0.0000      0.00 LINEAR 6.1672E-001     54.51 0.0000E+000      0.00
   90.00     86.00      2.29  -999.99     2.29      0.0000      0.00 LINEAR 6.1672E-001     54.51 0.0000E+000      0.00
   90.00     87.00      2.29  -999.99     2.29      0.0000      0.00 LINEAR 6.1672E-001     54.51 0.0000E+000      0.00
   90.00     88.00      2.29  -999.99     2.29      0.0000      0.00 LINEAR 6.1672E-001     54.51 0.0000E+000      0.00
   90.00     89.00      2.29  -999.99     2.29      0.0000      0.00 LINEAR 6.1672E-001     54.51 0.0000E+000      0.00
   90.00     90.00      2.29  -999.99     2.29      0.0000     -0.00 LINEAR 6.1672E-001     54.51 0.0000E+000    180.00
   90.00     91.00      2.29  -999.99     2.29      0.0000     -0.00 LINEAR 6.1672E-001     54.51 0.0000E+000    180.00
   90.00     92.00      2.29  -999.99     2.29      0.0000     -0.00 LINEAR 6.1672E-001     54.51 0.0000E+000    180.00
   90.00     93.00      2.29  -999.99     2.29      0.0000     -0.00 LINEAR 6.1672E-001     54.51 0.0000E+000    180.00
   90.00     94.00      2.29  -999.99     2.29      0.0000     -0.00 LINEAR 6.1672E-001     54.51 0.0000E+000    180.00
   90.00     95.00      2.29  -999.99     2.29      0.0000     -0.00 LINEAR 6.1672E-001     54.51 0.0000E+000    180.00
   90.00     96.00      2.29  -999.99     2.29      0.0000     -0.00 LINEAR 6.1672E-001     54.51 0.0000E+000    180.00
   90.00     97.00      2.29  -999.99     2.29      0.0000     -0.00 LINEAR 6.1672E-001     54.51 0.0000E+000    180.00
   90.00     98.00      2.29  -999.99     2.29      0.0000     -0.00 LINEAR 6.1672E-001     54.51 0.0000E+000    180.00
   90.00     99.00      2.29  -999.99     2.29      0.0000     -0.00 LINEAR 6.1672E-001     54.51 0.0000E+000    180.00
   90.00    100.00      2.29  -999.99     2.29      0.0000     -0.00 LINEAR 6.1672E-001     54.51 0.0000E+000    180.00
   90.00    101.00      2.29  -999.99     2.29      0.0000     -0.00 LINEAR 6.1672E-001     54.51 0.0000E+000    180.00
   90.00    102.00      2.29  -999.99     2.29      0.0000     -0.00 LINEAR 6.1672E-001     54.51 0.0000E+000    180.00
   90.00    103.00      2.29  -999.99     2.29      0.0000     -0.00 LINEAR 6.1672E-001     54.51 0.0000E+000    180.00
   90.00    104.00      2.29  -999.99     2.29      0.0000     -0.00 LINEAR 6.1672E-001     54.51 0.0000E+000    180.00
   90.00    105.00      2.29  -999.99     2.29      0.0000     -0.00 LINEAR 6.1672E-001     54.51 0.0000E+000    180.00
   90.00    106.00      2.29  -999.99     2.29      0.0000     -0.00 LINEAR 6.1672E-001     54.51 0.0000E+000    180.00
   90.00    107.00      2.29  -999.99     2.29      0.0000     -0.00 LINEAR 6.1672E-001     54.51 0.0000E+000    180.00
   90.00    108.00      2.29  -999.99     2.29      0.0000     -0.00 LINEAR 6.1672E-001     54.51 0.0000E+000    180.00
   90.00    109.00      2.29  -999.99     2.29      0.0000     -0.00 LINEAR 6.1672E-001     54.51 0.0000E+000    180.00
   90.00    110.00      2.29  -999.99     2.29      0.0000     -0.00 LINEAR 6.1672E-001     54.51 0.0000E+000    180.00
   90.00    111.00      2.29  -999.99     2.29      0.0000     -0.00 LINEAR 6.1672E-001     54.51 0.0000E+000    180.00
   90.00    112.00      2.29  -999.99     2.29      0.0000     -0.00 LINEAR 6.1672E-001     54.51 0.0000E+000    180.00
   90.00    113.00      2.29  -999.99     2.29      0.0000     -0.00 LINEAR 6.1672E-001     54.51 0.0000E+000    180.00
   90.00    114.00      2.29  -999.99     2.29      0.0000     -0.00 LINEAR 6.1672E-001     54.51 0.0000E+000    180.00
   90.00    115.00      2.29  -999.99     2.29      0.0000     -0.00 LINEAR 6.1672E-001     54.51 0.0000E+000    180.00
   90.00    116.00      2.29  -999.99     2.29      0.0000     -0.00 LINEAR 6.1672E-001     54.51 0.0000E+000    180.00
   90.00    117.00      2.29  -999.99     2.29      0.0000     -0.00 LINEAR 6.1672E-001     54.51 0.0000E+000    180.00
   90.00    118.00      2.29  -999.99     2.29      0.0000     -0.00 LINEAR 6.1672E-001     54.51 0.0000E+000    180.00
   90.00    119.00      2.29  -999.99     2.29      0.0000     -0.00 LINEAR 6.1672E-001     54.51 0.0000E+000    180.00
   90.00    120.00      2.29  -999.99     2.29      0.0000     -0.00 LINEAR 6.1672E-001     54.51 0.0000E+000    180.00
   90.00    121.00      2.29  -999.99     2.29      0.0000     -0.00 LINEAR 6.1672E-001     54.51 0.0000E+000    180.00
   90.00    122.00      2.29  -999.99     2.29      0.0000     -0.00 LINEAR 6.1672E-001     54.51 0.0000E+000    180.00
   90.00    123.00      2.29  -999.99     2.29      0.0000     -0.00 LINEAR 6.1672E-001     54.51 0.0000E+000    180.00
   90.00    124.00      2.29  -999.99     2.29      0.0000     -0.00 LINEAR 6.1672E-001     54.51 0.0000E+000    180.00
   90.00    125.00      2.29  -999.99     2.29      0.0000     -0.00 LINEAR 6.1672E-001     54.51 0.0000E+000    180.00
   90.00    126.00      2.29  -999.99     2.29      0.0000     -0.00 LINEAR 6.1672E-001     54.51 0.0000E+000    180.00
   90.00    127.00      2.29  -999.99     2.29      0.0000     -0.00 LINEAR 6.1672E-001     54.51 0.0000E+000    180.00
   90.00    128.00      2.29  -999.99     2.29      0.0000     -0.00 LINEAR 6.1672E-001     54.51 0.0000E+000    180.00
   90.00    129.00      2.29  -999.99     2.29      0.0000     -0.00 LINEAR 6.1672E-001     54.51 0.0000E+000    180.00
   90.00    130.00      2.29  -999.99     2.29      0.0000     -0.00 LINEAR 6.1672E-001     54.51 0.0000E+000    180.00
   90.00    131.00      2.29  -999.99     2.29      0.0000     -0.00 LINEAR 6.1672E-001     54.51 0.0000E+000    180.00
   90.00    132.00      2.29  -999.99     2.29      0.0000     -0.00 LINEAR 6.1672E-001     54.51 0.0000E+000    180.00
   90.00    133.00      2.29  -999.99     2.29      0.0000     -0.00 LINEAR 6.1672E-001     54.51 0.0000E+000    180.00
   90.00    134.00      2.29  -999.99     2.29      0.0000     -0.00 LINEAR 6.1672E-001     54.51 0.0000E+000    180.00
   90.00    135.00      2.29  -999.99     2.29      0.0000     -0.00 LINEAR 6.1672E-001     54.51 0.0000E+000    180.00
   90.00    136.00      2.29  -999.99     2.29      0.0000     -0.00 LINEAR 6.1672E-001     54.51 0.0000E+000    180.00
   90.00    137.00      2.29  -999.99     2.29      0.0000     -0.00 LINEAR 6.1672E-001     54.51 0.0000E+000    180.00
   90.00    138.00      2.29  -999.99     2.29      0.0000     -0.00 LINEAR 6.1672E-001     54.51 0.0000E+000    180.00
   90.00    139.00      2.29  -999.99     2.29      0.0000     -0.00 LINEAR 6.1672E-001     54.51 0.0000E+000    180.00
   90.00    140.00      2.29  -999.99     2.29      0.0000     -0.00 LINEAR 6.1672E-001     54.51 0.0000E+000    180.00
   90.00    141.00      2.29  -999.99     2.29      0.0000     -0.00 LINEAR 6.1672E-001     54.51 0.0000E+000    180.00
   90.00    142.00      2.29  -999.99     2.29      0.0000     -0.00 LINEAR 6.1672E-001     54.51 0.0000E+000    180.00
   90.00    143.00      2.29  -999.99     2.29      0.0000     -0.00 LINEAR 6.1672E-001     54.51 0.0000E+000    180.00
   90.00    144.00      2.29  -999.99     2.29      0.0000     -0.00 LINEAR 6.1672E-001     54.51 0.0000E+000    180.00
   90.00    145.00      2.29  -999.99     2.29      0.0000     -0.00 LINEAR 6.1672E-001     54.51 0.0000E+000    180.00
   90.00    146.00      2.29  -999.99     2.29      0.0000     -0.00 LINEAR 6.1672E-001     54.51 0.0000E+000    180.00
   90.00    147.00      2.29  -999.99     2.29      0.0000     -0.00 LINEAR 6.1672E-001     54.51 0.0000E+000    180.00
   90.00    148.00      2.29  -999.99     2.29      0.0000     -0.00 LINEAR 6.1672E-001     54.51 0.0000E+000    180.00
   90.00    149.00      2.29  -999.99     2.29      0.0000     -0.00 LINEAR 6.1672E-001     54.51 0.0000E+000    180.00
   90.00    150.00      2.29  -999.99     2.29      0.0000     -0.00 LINEAR 6.1672E-001     54.51 0.0000E+000    180.00
   90.00    151.00      2.29  -999.99     2.29      0.0000     -0.00 LINEAR 6.1672E-001     54.51 0.0000E+000    180.00
   90.00    152.00      2.29  -999.99     2.29      0.0000     -0.00 LINEAR 6.1672E-001     54.51 0.0000E+000    180.00
   90.00    153.00      2.29  -999.99     2.29      0.0000     -0.00 LINEAR 6.1672E-001     54.51 0.0000E+000    180.00
   90.00    154.00      2.29  -999.99     2.29      0.0000     -0.00 LINEAR 6.1672E-001     54.51 0.0000E+000    180.00
   90.00    155.00      2.29  -999.99     2.29      0.0000     -0.00 LINEAR 6.1672E-001     54.51 0.0000E+000    180.00
   90.00    156.00      2.29  -999.99     2.29      0.0000     -0.00 LINEAR 6.1672E-001     54.51 0.0000E+000    180.00
   90.00    157.00      2.29  -999.99     2.29      0.0000     -0.00 LINEAR 6.1672E-001     54.51 0.0000E+000    180.00
   90.00    158.00      2.29  -999.99     2.29      0.0000     -0.00 LINEAR 6.1672E-001     54.51 0.0000E+000    180.00
   90.00    159.00      2.29  -999.99     2.29      0.0000     -0.00 LINEAR 6.1672E-001     54.51 0.0000E+000    180.00
   90.00    160.00      2.29  -999.99     2.29      0.0000     -0.00 LINEAR 6.1672E-001     54.51 0.0000E+000    180.00
   90.00    161.00      2.29  -999.99     2.29      0.0000     -0.00 LINEAR 6.1672E-001     54.51 0.0000E+000    180.00
   90.00    162.00      2.29  -999.99     2.29      0.0000     -0.00 LINEAR 6.1672E-001     54.51 0.0000E+000    180.00
   90.00    163.00      2.29  -999.99     2.29      0.0000     -0.00 LINEAR 6.1672E-001     54.51 0.0000E+000    180.00
   90.00    164.00      2.29  -999.99     2.29      0.0000     -0.00 LINEAR 6.1672E-001     54.51 0.0000E+000    180.00
   90.00    165.00      2.29  -999.99     2.29      0.0000     -0.00 LINEAR 6.1672E-001     54.51 0.0000E+000    180.00
   90.00    166.00      2.29  -999.99     2.29      0.0000     -0.00 LINEAR 6.1672E-001     54.51 0.0000E+000    180.00
   90.00    167.00      2.29  -999.99     2.29      0.0000     -0.00 LINEAR 6.1672E-001     54.51 0.0000E+000    180.00
   90.00    168.00      2.29  -999.99     2.29      0.0000     -0.00 LINEAR 6.1672E-001     54.51 0.0000E+000    180.00
   90.00    169.00      2.29  -999.99     2.29      0.0000     -0.00 LINEAR 6.1672E-001     54.51 0.0000E+000    180.00
   90.00    170.00      2.29  -999.99     2.29      0.0000     -0.00 LINEAR 6.1672E-001     54.51 0.0000E+000    180.00
   90.00    171.00      2.29  -999.99     2.29      0.0000     -0.00 LINEAR 6.1672E-001     54.51 0.0000E+000    180.00
   90.00    172.00      2.29  -999.99     2.29      0.0000     -0.00 LINEAR 6.1672E-001     54.51 0.0000E+000    180.00
   90.00    173.00      2.29  -999.99     2.29      0.0000     -0.00 LINEAR 6.1672E-001     54.51 0.0000E+000    180.00
   90.00    174.00      2.29  -999.99     2.29      0.0000     -0.00 LINEAR 6.1672E-001     54.51 0.0000E+000    180.00
   90.00    175.00      2.29  -999.99     2.29      0.0000     -0.00 LINEAR 6.1672E-001     54.51 0.0000E+000    180.00
   90.00    176.00      2.29  -999.99     2.29      0.0000     -0.00 LINEAR 6.1672E-001     54.51 0.0000E+000    180.00
   90.00    177.00      2.29  -999.99     2.29      0.0000     -0.00 LINEAR 6.1672E-001     54.51 0.0000E+000    180.00
   90.00    178.00      2.29  -999.99     2.29      0.0000     -0.00 LINEAR 6.1672E-001     54.51 0.0000E+000    180.00
   90.00    179.00      2.29  -999.99     2.29      0.0000     -0.00 LINEAR 6.1672E-001     54.51 0.0000E+000    180.00
   90.00    180.00      2.29  -999.99     2.29      0.0000      0.00 LINEAR 6.1672E-001     54.51 0.0000E+000      0.00
   90.00    181.00      2.29  -999.99     2.29      0.0000      0.00 LINEAR 6.1672E-001     54.51 0.0000E+000      0.00
   90.00    182.00      2.29  -999.99     2.29      0.0000      0.00 LINEAR 6.1672E-001     54.51 0.0000E+000      0.00
   90.00    183.00      2.29  -999.99     2.29      0.0000      0.00 LINEAR 6.1672E-001     54.51 0.0000E+000      0.00
   90.00    184.00      2.29  -999.99     2.29      0.0000      0.00 LINEAR 6.1672E-001     54.51 0.0000E+000      0.00
   90.00    185.00      2.29  -999.99     2.29      0.0000      0.00 LINEAR 6.1672E-001     54.51 0.0000E+000      0.00
   90.00    186.00      2.29  -999.99     2.29      0.0000      0.00 LINEAR 6.1672E-001     54.51 0.0000E+000      0.00
   90.00    187.00      2.29  -999.99     2.29      0.0000      0.00 LINEAR 6.1672E-001     54.51 0.0000E+000      0.00
   90.00    188.00      2.29  -999.99     2.29      0.0000      0.00 LINEAR 6.1672E-001     54.51 0.0000E+000      0.00
   90.00    189.00      2.29  -999.99     2.29      0.0000      0.00 LINEAR 6.1672E-001     54.51 0.0000E+000      0.00
   90.00    190.00      2.29  -999.99     2.29      0.0000      0.00 LINEAR 6.1672E-001     54.51 0.0000E+000      0.00
   90.00    191.00      2.29  -999.99     2.29      0.0000      0.00 LINEAR 6.1672E-001     54.51 0.0000E+000      0.00
   90.00    192.00      2.29  -999.99     2.29      0.0000      0.00 LINEAR 6.1672E-001     54.51 0.0000E+000      0.00
   90.00    193.00      2.29  -999.99     2.29      0.0000      0.00 LINEAR 6.1672E-001     54.51 0.0000E+000      0.00
   90.00    194.00      2.29  -999.99     2.29      0.0000      0.00 LINEAR 6.1672E-001     54.51 0.0000E+000      0.00
   90.00    195.00      2.29  -999.99     2.29      0.0000      0.00 LINEAR 6.1672E-001     54.51 0.0000E+000      0.00
   90.00    196.00      2.29  -999.99     2.29      0.0000      0.00 LINEAR 6.1672E-001     54.51 0.0000E+000      0.00
   90.00    197.00      2.29  -999.99     2.29      0.0000      0.00 LINEAR 6.1672E-001     54.51 0.0000E+000      0.00
   90.00    198.00      2.29  -999.99     2.29      0.0000      0.00 LINEAR 6.1672E-001     54.51 0.0000E+000      0.00
   90.00    199.00      2.29  -999.99     2.29      0.0000      0.00 LINEAR 6.1672E-001     54.51 0.0000E+000      0.00
   90.00    200.00      2.29  -999.99     2.29      0.0000      0.00 LINEAR 6.1672E-001     54.51 0.0000E+000      0.00
   90.00    201.00      2.29  -999.99     2.29      0.0000      0.00 LINEAR 6.1672E-001     54.51 0.0000E+000      0.00
   90.00    202.00      2.29  -999.99     2.29      0.0000      0.00 LINEAR 6.1672E-001     54.51 0.0000E+000      0.00
   90.00    203.00      2.29  -999.99     2.29      0.0000      0.00 LINEAR 6.1672E-001     54.51 0.0000E+000      0.00
   90.00    204.00      2.29  -999.99     2.29      0.0000      0.00 LINEAR 6.1672E-001     54.51 0.0000E+000      0.00
   90.00    205.00      2.29  -999.99     2.29      0.0000      0.00 LINEAR 6.1672E-001     54.51 0.0000E+000      0.00
   90.00    206.00      2.29  -999.99     2.29      0.0000      0.00 LINEAR 6.1672E-001     54.51 0.0000E+000      0.00
   90.00    207.00      2.29  -999.99     2.29      0.0000      0.00 LINEAR 6.1672E-001     54.51 0.0000E+000      0.00
   90.00    208.00      2.29  -999.99     2.29      0.0000      0.00 LINEAR 6.1672E-001     54.51 0.0000E+000      0.00
   90.00    209.00      2.29  -999.99     2.29      0.0000      0.00 LINEAR 6.1672E-001     54.51 0.0000E+000      0.00
   90.00    210.00      2.29  -999.99     2.29      0.0000      0.00 LINEAR 6.1672E-001     54.51 0.0000E+000      0.00
   90.00    211.00      2.29  -999.99     2.29      0.0000      0.00 LINEAR 6.1672E-001     54.51 0.0000E+000      0.00
   90.00    212.00      2.29  -999.99     2.29      0.0000      0.00 LINEAR 6.1672E-001     54.51 0.0000E+000      0.00
   90.00    213.00      2.29  -999.99     2.29      0.0000      0.00 LINEAR 6.1672E-001     54.51 0.0000E+000      0.00
   90.00    214.00      2.29  -999.99     2.29      0.0000      0.00 LINEAR 6.1672E-001     54.51 0.0000E+000      0.00
   90.00    215.00      2.29  -999.99     2.29      0.0000      0.00 LINEAR 6.1672E-001     54.51 0.0000E+000      0.00
   90.00    216.00      2.29  -999.99     2.29      0.0000      0.00 LINEAR 6.1672E-001     54.51 0.0000E+000      0.00
   90.00    217.00      2.29  -999.99     2.29      0.0000      0.00 LINEAR 6.1672E-001     54.51 0.0000E+000      0.00
   90.00    218.00      2.29  -999.99     2.29      0.0000      0.00 LINEAR 6.1672E-001     54.51 0.0000E+000      0.00
   90.00    219.00      2.29  -999.99     2.29      0.0000      0.00 LINEAR 6.1672E-001     54.51 0.0000E+000      0.00
   90.00    220.00      2.29  -999.99     2.29      0.0000      0.00 LINEAR 6.1672E-001     54.51 0.0000E+000      0.00
   90.00    221.00      2.29  -999.99     2.29      0.0000      0.00 LINEAR 6.1672E-001     54.51 0.0000E+000      0.00
   90.00    222.00      2.29  -999.99     2.29      0.0000      0.00 LINEAR 6.1672E-001     54.51 0.0000E+000      0.00
   90.00    223.00      2.29  -999.99     2.29      0.0000      0.00 LINEAR 6.1672E-001     54.51 0.0000E+000      0.00
   90.00    224.00      2.29  -999.99     2.29      0.0000      0.00 LINEAR 6.1672E-001     54.51 0.0000E+000      0.00
   90.00    225.00      2.29  -999.99     2.29      0.0000      0.00 LINEAR 6.1672E-001     54.51 0.0000E+000      0.00
   90.00    226.00      2.29  -999.99     2.29      0.0000      0.00 LINEAR 6.1672E-001     54.51 0.0000E+000      0.00
   90.00    227.00      2.29  -999.99     2.29      0.0000      0.00 LINEAR 6.1672E-001     54.51 0.0000E+000      0.00
   90.00    228.00      2.29  -999.99     2.29      0.0000      0.00 LINEAR 6.1672E-001     54.51 0.0000E+000      0.00
   90.00    229.00      2.29  -999.99     2.29      0.0000      0.00 LINEAR 6.1672E-001     54.51 0.0000E+000      0.00
   90.00    230.00      2.29  -999.99     2.29      0.0000      0.00 LINEAR 6.1672E-001     54.51 0.0000E+000      0.00
   90.00    231.00      2.29  -999.99     2.29      0.0000      0.00 LINEAR 6.1672E-001     54.51 0.0000E+000      0.00
   90.00    232.00      2.29  -999.99     2.29      0.0000      0.00 LINEAR 6.1672E-001     54.51 0.0000E+000      0.00
   90.00    233.00      2.29  -999.99     2.29      0.0000      0.00 LINEAR 6.1672E-001     54.51 0.0000E+000      0.00
   90.00    234.00      2.29  -999.99     2.29      0.0000      0.00 LINEAR 6.1672E-001     54.51 0.0000E+000      0.00
   90.00    235.00      2.29  -999.99     2.29      0.0000      0.00 LINEAR 6.1672E-001     54.51 0.0000E+000      0.00
   90.00    236.00      2.29  -999.99     2.29      0.0000      0.00 LINEAR 6.1672E-001     54.51 0.0000E+000      0.00
   90.00    237.00      2.29  -999.99     2.29      0.0000      0.00 LINEAR 6.1672E-001     54.51 0.0000E+000      0.00
   90.00    238.00      2.29  -999.99     2.29      0.0000      0.00 LINEAR 6.1672E-001     54.51 0.0000E+000      0.00
   90.00    239.00      2.29  -999.99     2.29      0.0000      0.00 LINEAR 6.1672E-001     54.51 0.0000E+000      0.00
   90.00    240.00      2.29  -999.99     2.29      0.0000      0.00 LINEAR 6.1672E-001     54.51 0.0000E+000      0.00
   90.00    241.00      2.29  -999.99     2.29      0.0000      0.00 LINEAR 6.1672E-001     54.51 0.0000E+000      0.00
   90.00    242.00      2.29  -999.99     2.29      0.0000      0.00 LINEAR 6.1672E-001     54.51 0.0000E+000      0.00
   90.00    243.00      2.29  -999.99     2.29      0.0000      0.00 LINEAR 6.1672E-001     54.51 0.0000E+000      0.00
   90.00    244.00      2.29  -999.99     2.29      0.0000      0.00 LINEAR 6.1672E-001     54.51 0.0000E+000      0.00
   90.00    245.00      2.29  -999.99     2.29      0.0000      0.00 LINEAR 6.1672E-001     54.51 0.0000E+000      0.00
   90.00    246.00      2.29  -999.99     2.29      0.0000      0.00 LINEAR 6.1672E-001     54.51 0.0000E+000      0.00
   90.00    247.00      2.29  -999.99     2.29      0.0000      0.00 LINEAR 6.1672E-001     54.51 0.0000E+000      0.00
   90.00    248.00      2.29  -999.99     2.29      0.0000      0.00 LINEAR 6.1672E-001     54.51 0.0000E+000      0.00
   90.00    249.00      2.29  -999.99     2.29      0.0000      0.00 LINEAR 6.1672E-001     54.51 0.0000E+000      0.00
   90.00    250.00      2.29  -999.99     2.29      0.0000      0.00 LINEAR 6.1672E-001     54.51 0.0000E+000      0.00
   90.00    251.00      2.29  -999.99     2.29      0.0000      0.00 LINEAR 6.1672E-001     54.51 0.0000E+000      0.00
   90.00    252.00      2.29  -999.99     2.29      0.0000      0.00 LINEAR 6.1672E-001     54.51 0.0000E+000      0.00
   90.00    253.00      2.29  -999.99     2.29      0.0000      0.00 LINEAR 6.1672E-001     54.51 0.0000E+000      0.00
   90.00    254.00      2.29  -999.99     2.29      0.0000      0.00 LINEAR 6.1672E-001     54.51 0.0000E+000      0.00
   90.00    255.00      2.29  -999.99     2.29      0.0000      0.00 LINEAR 6.1672E-001     54.51 0.0000E+000      0.00
   90.00    256.00      2.29  -999.99     2.29      0.0000      0.00 LINEAR 6.1672E-001     54.51 0.0000E+000      0.00
   90.00    257.00      2.29  -999.99     2.29      0.0000      0.00 LINEAR 6.1672E-001     54.51 0.0000E+000      0.00
   90.00    258.00      2.29  -999.99     2.29      0.0000      0.00 LINEAR 6.1672E-001     54.51 0.0000E+000      0.00
   90.00    259.00      2.29  -999.99     2.29      0.0000      0.00 LINEAR 6.1672E-001     54.51 0.0000E+000      0.00
   90.00    260.00      2.29  -999.99     2.29      0.0000      0.00 LINEAR 6.1672E-001     54.51 0.0000E+000      0.00
   90.00    261.00      2.29  -999.99     2.29      0.0000      0.00 LINEAR 6.1672E-001     54.51 0.0000E+000      0.00
   90.00    262.00      2.29  -999.99     2.29      0.0000      0.00 LINEAR 6.1672E-001     54.51 0.0000E+000      0.00
   90.00    263.00      2.29  -999.99     2.29      0.0000      0.00 LINEAR 6.1672E-001     54.51 0.0000E+000      0.00
   90.00    264.00      2.29  -999.99     2.29      0.0000      0.00 LINEAR 6.1672E-001     54.51 0.0000E+000      0.00
   90.00    265.00      2.29  -999.99     2.29      0.0000      0.00 LINEAR 6.1672E-001     54.51 0.0000E+000      0.00
   90.00    266.00      2.29  -999.99     2.29      0.0000      0.00 LINEAR 6.1672E-001     54.51 0.0000E+000      0.00
   90.00    267.00      2.29  -999.99     2.29      0.0000      0.00 LINEAR 6.1672E-001     54.51 0.0000E+000      0.00
   90.00    268.00      2.29  -999.99     2.29      0.0000      0.00 LINEAR 6.1672E-001     54.51 0.0000E+000      0.00
   90.00    269.00      2.29  -999.99     2.29      0.0000      0.00 LINEAR 6.1672E-001     54.51 0.0000E+000      0.00
   90.00    270.00      2.29  -999.99     2.29      0.0000      0.00 LINEAR 6.1672E-001     54.51 0.0000E+000      0.00
   90.00    271.00      2.29  -999.99     2.29      0.0000      0.00 LINEAR 6.1672E-001     54.51 0.0000E+000      0.00
   90.00    272.00      2.29  -999.99     2.29      0.0000      0.00 LINEAR 6.1672E-001     54.51 0.0000E+000      0.00
   90.00    273.00      2.29  -999.99     2.29      0.0000      0.00 LINEAR 6.1672E-001     54.51 0.0000E+000      0.00
   90.00    274.00      2.29  -999.99     2.29      0.0000      0.00 LINEAR 6.1672E-001     54.51 0.0000E+000      0.00
   90.00    275.00      2.29  -999.99     2.29      0.0000      0.00 LINEAR 6.1672E-001     54.51 0.0000E+000      0.00
   90.00    276.00      2.29  -999.99     2.29      0.0000      0.00 LINEAR 6.1672E-001     54.51 0.0000E+000      0.00
   90.00    277.00      2.29  -999.99     2.29      0.0000      0.00 LINEAR 6.1672E-001     54.51 0.0000E+000      0.00
   90.00    278.00      2.29  -999.99     2.29      0.0000      0.00 LINEAR 6.1672E-001     54.51 0.0000E+000      0.00
   90.00    279.00      2.29  -999.99     2.29      0.0000      0.00 LINEAR 6.1672E-001     54.51 0.0000E+000      0.00
   90.00    280.00      2.29  -999.99     2.29      0.0000      0.00 LINEAR 6.1672E-001     54.51 0.0000E+000      0.00
   90.00    281.00      2.29  -999.99     2.29      0.0000      0.00 LINEAR 6.1672E-001     54.51 0.0000E+000      0.00
   90.00    282.00      2.29  -999.99     2.29      0.0000      0.00 LINEAR 6.1672E-001     54.51 0.0000E+000      0.00
   90.00    283.00      2.29  -999.99     2.29      0.0000      0.00 LINEAR 6.1672E-001     54.51 0.0000E+000      0.00
   90.00    284.00      2.29  -999.99     2.29      0.0000      0.00 LINEAR 6.1672E-001     54.51 0.0000E+000      0.00
   90.00    285.00      2.29  -999.99     2.29      0.0000      0.00 LINEAR 6.1672E-001     54.51 0.0000E+000      0.00
   90.00    286.00      2.29  -999.99     2.29      0.0000      0.00 LINEAR 6.1672E-001     54.51 0.0000E+000      0.00
   90.00    287.00      2.29  -999.99     2.29      0.0000      0.00 LINEAR 6.1672E-001     54.51 0.0000E+000      0.00
   90.00    288.00      2.29  -999.99     2.29      0.0000      0.00 LINEAR 6.1672E-001     54.51 0.0000E+000      0.00
   90.00    289.00      2.29  -999.99     2.29      0.0000      0.00 LINEAR 6.1672E-001     54.51 0.0000E+000      0.00
   90.00    290.00      2.29  -999.99     2.29      0.0000      0.00 LINEAR 6.1672E-001     54.51 0.0000E+000      0.00
   90.00    291.00      2.29  -999.99     2.29      0.0000      0.00 LINEAR 6.1672E-001     54.51 0.0000E+000      0.00
   90.00    292.00      2.29  -999.99     2.29      0.0000      0.00 LINEAR 6.1672E-001     54.51 0.0000E+000      0.00
   90.00    293.00      2.29  -999.99     2.29      0.0000      0.00 LINEAR 6.1672E-001     54.51 0.0000E+000      0.00
   90.00    294.00      2.29  -999.99     2.29      0.0000      0.00 LINEAR 6.1672E-001     54.51 0.0000E+000      0.00
   90.00    295.00      2.29  -999.99     2.29      0.0000      0.00 LINEAR 6.1672E-001     54.51 0.0000E+000      0.00
   90.00    296.00      2.29  -999.99     2.29      0.0000      0.00 LINEAR 6.1672E-001     54.51 0.0000E+000      0.00
   90.00    297.00      2.29  -999.99     2.29      0.0000      0.00 LINEAR 6.1672E-001     54.51 0.0000E+000      0.00
   90.00    298.00      2.29  -999.99     2.29      0.0000      0.00 LINEAR 6.1672E-001     54.51 0.0000E+000      0.00
   90.00    299.00      2.29  -999.99     2.29      0.0000      0.00 LINEAR 6.1672E-001     54.51 0.0000E+000      0.00
   90.00    300.00      2.29  -999.99     2.29      0.0000      0.00 LINEAR 6.1672E-001     54.51 0.0000E+000      0.00
   90.00    301.00      2.29  -999.99     2.29      0.0000      0.00 LINEAR 6.1672E-001     54.51 0.0000E+000      0.00
   90.00    302.00      2.29  -999.99     2.29      0.0000      0.00 LINEAR 6.1672E-001     54.51 0.0000E+000      0.00
   90.00    303.00      2.29  -999.99     2.29      0.0000      0.00 LINEAR 6.1672E-001     54.51 0.0000E+000      0.00
   90.00    304.00      2.29  -999.99     2.29      0.0000      0.00 LINEAR 6.1672E-001     54.51 0.0000E+000      0.00
   90.00    305.00      2.29  -999.99     2.29      0.0000      0.00 LINEAR 6.1672E-001     54.51 0.0000E+000      0.00
   90.00    306.00      2.29  -999.99     2.29      0.0000      0.00 LINEAR 6.1672E-001     54.51 0.0000E+000      0.00
   90.00    307.00      2.29  -999.99     2.29      0.0000      0.00 LINEAR 6.1672E-001     54.51 0.0000E+000      0.00
   90.00    308.00      2.29  -999.99     2.29      0.0000      0.00 LINEAR 6.1672E-001     54.51 0.0000E+000      0.00
   90.00    309.00      2.29  -999.99     2.29      0.0000      0.00 LINEAR 6.1672E-001     54.51 0.0000E+000      0.00
   90.00    310.00      2.29  -999.99     2.29      0.0000      0.00 LINEAR 6.1672E-001     54.51 0.0000E+000      0.00
   90.00    311.00      2.29  -999.99     2.29      0.0000      0.00 LINEAR 6.1672E-001     54.51 0.0000E+000      0.00
   90.00    312.00      2.29  -999.99     2.29      0.0000      0.00 LINEAR 6.1672E-001     54.51 0.0000E+000      0.00
   90.00    313.00      2.29  -999.99     2.29      0.0000      0.00 LINEAR 6.1672E-001     54.51 0.0000E+000      0.00
   90.00    314.00      2.29  -999.99     2.29      0.0000      0.00 LINEAR 6.1672E-001     54.51 0.0000E+000      0.00
   90.00    315.00      2.29  -999.99     2.29      0.0000      0.00 LINEAR 6.1672E-001     54.51 0.0000E+000      0.00
   90.00    316.00      2.29  -999.99     2.29      0.0000      0.00 LINEAR 6.1672E-001     54.51 0.0000E+000      0.00
   90.00    317.00      2.29  -999.99     2.29      0.0000      0.00 LINEAR 6.1672E-001     54.51 0.0000E+000      0.00
   90.00    318.00      2.29  -999.99     2.29      0.0000      0.00 LINEAR 6.1672E-001     54.51 0.0000E+000      0.00
   90.00    319.00      2.29  -999.99     2.29      0.0000      0.00 LINEAR 6.1672E-001     54.51 0.0000E+000      0.00
   90.00    320.00      2.29  -999.99     2.29      0.0000      0.00 LINEAR 6.1672E-001     54.51 0.0000E+000      0.00
   90.00    321.00      2.29  -999.99     2.29      0.0000      0.00 LINEAR 6.1672E-001     54.51 0.0000E+000      0.00
   90.00    322.00      2.29  -999.99     2.29      0.0000      0.00 LINEAR 6.1672E-001     54.51 0.0000E+000      0.00
   90.00    323.00      2.29  -999.99     2.29      0.0000      0.00 LINEAR 6.1672E-001     54.51 0.0000E+000      0.00
   90.00    324.00      2.29  -999.99     2.29      0.0000      0.00 LINEAR 6.1672E-001     54.51 0.0000E+000      0.00
   90.00    325.00      2.29  -999.99     2.29      0.0000      0.00 LINEAR 6.1672E-001     54.51 0.0000E+000      0.00
   90.00    326.00      2.29  -999.99     2.29      0.0000      0.00 LINEAR 6.1672E-001     54.51 0.0000E+000      0.00
   90.00    327.00      2.29  -999.99     2.29      0.0000      0.00 LINEAR 6.1672E-001     54.51 0.0000E+000      0.00
   90.00    328.00      2.29  -999.99     2.29      0.0000      0.00 LINEAR 6.1672E-001     54.51 0.0000E+000      0.00
   90.00    329.00      2.29  -999.99     2.29      0.0000      0.00 LINEAR 6.1672E-001     54.51 0.0000E+000      0.00
   90.00    330.00      2.29  -999.99     2.29      0.0000      0.00 LINEAR 6.1672E-001     54.51 0.0000E+000      0.00
   90.00    331.00      2.29  -999.99     2.29      0.0000      0.00 LINEAR 6.1672E-001     54.51 0.0000E+000      0.00
   90.00    332.00      2.29  -999.99     2.29      0.0000      0.00 LINEAR 6.1672E-001     54.51 0.0000E+000      0.00
   90.00    333.00      2.29  -999.99     2.29      0.0000      0.00 LINEAR 6.1672E-001     54.51 0.0000E+000      0.00
   90.00    334.00      2.29  -999.99     2.29      0.0000      0.00 LINEAR 6.1672E-001     54.51 0.0000E+000      0.00
   90.00    335.00      2.29  -999.99     2.29      0.0000      0.00 LINEAR 6.1672E-001     54.51 0.0000E+000      0.00
   90.00    336.00      2.29  -999.99     2.29      0.0000      0.00 LINEAR 6.1672E-001     54.51 0.0000E+000      0.00
   90.00    337.00      2.29  -999.99     2.29      0.0000      0.00 LINEAR 6.1672E-001     54.51 0.0000E+000      0.00
   90.00    338.00      2.29  -999.99     2.29      0.0000      0.00 LINEAR 6.1672E-001     54.51 0.0000E+000      0.00
   90.00    339.00      2.29  -999.99     2.29      0.0000      0.00 LINEAR 6.1672E-001     54.51 0.0000E+000      0.00
   90.00    340.00      2.29  -999.99     2.29      0.0000      0.00 LINEAR 6.1672E-001     54.51 0.0000E+000      0.00
   90.00    341.00      2.29  -999.99     2.29      0.0000      0.00 LINEAR 6.1672E-001     54.51 0.0000E+000      0.00
   90.00    342.00      2.29  -999.99     2.29      0.0000      0.00 LINEAR 6.1672E-001     54.51 0.0000E+000      0.00
   90.00    343.00      2.29  -999.99     2.29      0.0000      0.00 LINEAR 6.1672E-001     54.51 0.0000E+000      0.00
   90.00    344.00      2.29  -999.99     2.29      0.0000      0.00 LINEAR 6.1672E-001     54.51 0.0000E+000      0.00
   90.00    345.00      2.29  -999.99     2.29      0.0000      0.00 LINEAR 6.1672E-001     54.51 0.0000E+000      0.00
   90.00    346.00      2.29  -999.99     2.29      0.0000      0.00 LINEAR 6.1672E-001     54.51 0.0000E+000      0.00
   90.00    347.00      2.29  -999.99     2.29      0.0000      0.00 LINEAR 6.1672E-001     54.51 0.0000E+000      0.00
   90.00    348.00      2.29  -999.99     2.29      0.0000      0.00 LINEAR 6.1672E-001     54.51 0.0000E+000      0.00
   90.00    349.00      2.29  -999.99     2.29      0.0000      0.00 LINEAR 6.1672E-001     54.51 0.0000E+000      0.00
   90.00    350.00      2.29  -999.99     2.29      0.0000      0.00 LINEAR 6.1672E-001     54.51 0.0000E+000      0.00
   90.00    351.00      2.29  -999.99     2.29      0.0000      0.00 LINEAR 6.1672E-001     54.51 0.0000E+000      0.00
   90.00    352.00      2.29  -999.99     2.29      0.0000      0.00 LINEAR 6.1672E-001     54.51 0.0000E+000      0.00
   90.00    353.00      2.29  -999.99     2.29      0.0000      0.00 LINEAR 6.1672E-001     54.51 0.0000E+000      0.00
   90.00    354.00      2.29  -999.99     2.29      0.0000      0.00 LINEAR 6.1672E-001     54.51 0.0000E+000      0.00
   90.00    355.00      2.29  -999.99     2.29      0.0000      0.00 LINEAR 6.1672E-001     54.51 0.0000E+000      0.00
   90.00    356.00      2.29  -999.99     2.29      0.0000      0.00 LINEAR 6.1672E-001     54.51 0.0000E+000      0.00
   90.00    357.00      2.29  -999.99     2.29      0.0000      0.00 LINEAR 6.1672E-001     54.51 0.0000E+000      0.00
   90.00    358.00      2.29  -999.99     2.29      0.0000      0.00 LINEAR 6.1672E-001     54.51 0.0000E+000      0.00
   90.00    359.00      2.29  -999.99     2.29      0.0000      0.00 LINEAR 6.1672E-001     54.51 0.0000E+000      0.00


                              ---------- NORMALIZED GAIN ----------
                                            TOTAL  GAIN
                                   NORMALIZATION FACTOR: 2.29 db

    ---- ANGLES ----                ---- ANGLES ----                ---- ANGLES ----
    THETA      PHI        GAIN      THETA      PHI        GAIN      THETA      PHI       GAIN
   DEGREES   DEGREES        DB     DEGREES   DEGREES        DB     DEGREES   DEGREES       DB
     90.00      0.00      0.00       90.00    120.00      0.00       90.00    240.00      0.00
     90.00      1.00      0.00       90.00    121.00      0.00       90.00    241.00      0.00
     90.00      2.00      0.00       90.00    122.00      0.00       90.00    242.00      0.00
     90.00      3.00      0.00       90.00    123.00      0.00       90.00    243.00      0.00
     90.00      4.00      0.00       90.00    124.00      0.00       90.00    244.00      0.00
     90.00      5.00      0.00       90.00    125.00      0.00       90.00    245.00      0.00
     90.00      6.00      0.00       90.00    126.00      0.00       90.00    246.00      0.00
     90.00      7.00      0.00       90.00    127.00      0.00       90.00    247.00      0.00
     90.00      8.00      0.00       90.00    128.00      0.00       90.00    248.00      0.00
     90.00      9.00      0.00       90.00    129.00      0.00       90.00    249.00      0.00
     90.00     10.00      0.00       90.00    130.00      0.00       90.00    250.00      0.00
     90.00     11.00      0.00       90.00    131.00      0.00       90.00    251.00      0.00
     90.00     12.00      0.00       90.00    132.00      0.00       90.00    252.00      0.00
     90.00     13.00      0.00       90.00    133.00      0.00       90.00    253.00      0.00
     90.00     14.00      0.00       90.00    134.00      0.00       90.00    254.00      0.00
     90.00     15.00      0.00       90.00    135.00      0.00       90.00    255.00      0.00
     90.00     16.00      0.00       90.00    136.00      0.00       90.00    256.00      0.00
     90.00     17.00      0.00       90.00    137.00      0.00       90.00    257.00      0.00
     90.00     18.00      0.00       90.00    138.00      0.00       90.00    258.00      0.00
     90.00     19.00      0.00       90.00    139.00      0.00       90.00    259.00      0.00
     90.00     20.00      0.00       90.00    140.00      0.00       90.00    260.00      0.00
     90.00     21.00      0.00       90.00    141.00      0.00       90.00    261.00      0.00
     90.00     22.00      0.00       90.00    142.00      0.00       90.00    262.00      0.00
     90.00     23.00      0.00       90.00    143.00      0.00       90.00    263.00      0.00
     90.00     24.00      0.00       90.00    144.00      0.00       90.00    264.00      0.00
     90.00     25.00      0.00       90.00    145.00      0.00       90.00    265.00      0.00
     90.00     26.00      0.00       90.00    146.00      0.00       90.00    266.00      0.00
     90.00     27.00      0.00       90.00    147.00      0.00       90.00    267.00      0.00
     90.00     28.00      0.00       90.00    148.00      0.00       90.00    268.00      0.00
     90.00     29.00      0.00       90.00    149.00      0.00       90.00    269.00      0.00
     90.00     30.00      0.00       90.00    150.00      0.00       90.00    270.00      0.00
     90.00     31.00      0.00       90.00    151.00      0.00       90.00    271.00      0.00
     90.00     32.00      0.00       90.00    152.00      0.00       90.00    272.00      0.00
     90.00     33.00      0.00       90.00    153.00      0.00       90.00    273.00      0.00
     90.00     34.00      0.00       90.00    154.00      0.00       90.00    274.00      0.00
     90.00     35.00      0.00       90.00    155.00      0.00       90.00    275.00      0.00
     90.00     36.00      0.00       90.00    156.00      0.00       90.00    276.00      0.00
     90.00     37.00      0.00       90.00    157.00      0.00       90.00    277.00      0.00
     90.00     38.00      0.00       90.00    158.00      0.00       90.00    278.00      0.00
     90.00     39.00      0.00       90.00    159.00      0.00       90.00    279.00      0.00
     90.00     40.00      0.00       90.00    160.00      0.00       90.00    280.00      0.00
     90.00     41.00      0.00       90.00    161.00      0.00       90.00    281.00      0.00
     90.00     42.00      0.00       90.00    162.00      0.00       90.00    282.00      0.00
     90.00     43.00      0.00       90.00    163.00      0.00       90.00    283.00      0.00
     90.00     44.00      0.00       90.00    164.00      0.00       90.00    284.00      0.00
     90.00     45.00      0.00       90.00    165.00      0.00       90.00    285.00      0.00
     90.00     46.00      0.00       90.00    166.00      0.00       90.00    286.00      0.00
     90.00     47.00      0.00       90.00    167.00      0.00       90.00    287.00      0.00
     90.00     48.00      0.00       90.00    168.00      0.00       90.00    288.00      0.00
     90.00     49.00      0.00       90.00    169.00      0.00       90.00    289.00      0.00
     90.00     50.00      0.00       90.00    170.00      0.00       90.00    290.00      0.00
     90.00     51.00      0.00       90.00    171.00      0.00       90.00    291.00      0.00
     90.00     52.00      0.00       90.00    172.00      0.00       90.00    292.00      0.00
     90.00     53.00      0.00       90.00    173.00      0.00       90.00    293.00      0.00
     90.00     54.00      0.00       90.00    174.00      0.00       90.00    294.00      0.00
     90.00     55.00      0.00       90.00    175.00      0.00       90.00    295.00      0.00
     90.00     56.00      0.00       90.00    176.00      0.00       90.00    296.00      0.00
     90.00     57.00      0.00       90.00    177.00      0.00       90.00    297.00      0.00
     90.00     58.00      0.00       90.00    178.00      0.00       90.00    298.00      0.00
     90.00     59.00      0.00       90.00    179.00      0.00       90.00    299.00      0.00
     90.00     60.00      0.00       90.00    180.00      0.00       90.00    300.00      0.00
     90.00     61.00      0.00       90.00    181.00      0.00       90.00    301.00      0.00
     90.00     62.00      0.00       90.00    182.00      0.00       90.00    302.00      0.00
     90.00     63.00      0.00       90.00    183.00      0.00       90.00    303.00      0.00
     90.00     64.00      0.00       90.00    184.00      0.00       90.00    304.00      0.00
     90.00     65.00      0.00       90.00    185.00      0.00       90.00    305.00      0.00
     90.00     66.00      0.00       90.00    186.00      0.00       90.00    306.00      0.00
     90.00     67.00      0.00       90.00    187.00      0.00       90.00    307.00      0.00
     90.00     68.00      0.00       90.00    188.00      0.00       90.00    308.00      0.00
     90.00     69.00      0.00       90.00    189.00      0.00       90.00    309.00      0.00
     90.00     70.00      0.00       90.00    190.00      0.00       90.00    310.00      0.00
     90.00     71.00      0.00       90.00    191.00      0.00       90.00    311.00      0.00
     90.00     72.00      0.00       90.00    192.00      0.00       90.00    312.00      0.00
     90.00     73.00      0.00       90.00    193.00      0.00       90.00    313.00      0.00
     90.00     74.00      0.00       90.00    194.00      0.00       90.00    314.00      0.00
     90.00     75.00      0.00       90.00    195.00      0.00       90.00    315.00      0.00
     90.00     76.00      0.00       90.00    196.00      0.00       90.00    316.00      0.00
     90.00     77.00      0.00       90.00    197.00      0.00       90.00    317.00      0.00
     90.00     78.00      0.00       90.00    198.00      0.00       90.00    318.00      0.00
     90.00     79.00      0.00       90.00    199.00      0.00       90.00    319.00      0.00
     90.00     80.00      0.00       90.00    200.00      0.00       90.00    320.00      0.00
     90.00     81.00      0.00       90.00    201.00      0.00       90.00    321.00      0.00
     90.00     82.00      0.00       90.00    202.00      0.00       90.00    322.00      0.00
     90.00     83.00      0.00       90.00    203.00      0.00       90.00    323.00      0.00
     90.00     84.00      0.00       90.00    204.00      0.00       90.00    324.00      0.00
     90.00     85.00      0.00       90.00    205.00      0.00       90.00    325.00      0.00
     90.00     86.00      0.00       90.00    206.00      0.00       90.00    326.00      0.00
     90.00     87.00      0.00       90.00    207.00      0.00       90.00    327.00      0.00
     90.00     88.00      0.00       90.00    208.00      0.00       90.00    328.00      0.00
     90.00     89.00      0.00       90.00    209.00      0.00       90.00    329.00      0.00
     90.00     90.00      0.00       90.00    210.00      0.00       90.00    330.00      0.00
     90.00     91.00      0.00       90.00    211.00      0.00       90.00    331.00      0.00
     90.00     92.00      0.00       90.00    212.00      0.00       90.00    332.00      0.00
     90.00     93.00      0.00       90.00    213.00      0.00       90.00    333.00      0.00
     90.00     94.00      0.00       90.00    214.00      0.00       90.00    334.00      0.00
     90.00     95.00      0.00       90.00    215.00      0.00       90.00    335.00      0.00
     90.00     96.00      0.00       90.00    216.00      0.00       90.00    336.00      0.00
     90.00     97.00      0.00       90.00    217.00      0.00       90.00    337.00      0.00
     90.00     98.00      0.00       90.00    218.00      0.00       90.00    338.00      0.00
     90.00     99.00      0.00       90.00    219.00      0.00       90.00    339.00      0.00
     90.00    100.00      0.00       90.00    220.00      0.00       90.00    340.00      0.00
     90.00    101.00      0.00       90.00    221.00      0.00       90.00    341.00      0.00
     90.00    102.00      0.00       90.00    222.00      0.00       90.00    342.00      0.00
     90.00    103.00      0.00       90.00    223.00      0.00       90.00    343.00      0.00
     90.00    104.00      0.00       90.00    224.00      0.00       90.00    344.00      0.00
     90.00    105.00      0.00       90.00    225.00      0.00       90.00    345.00      0.00
     90.00    106.00      0.00       90.00    226.00      0.00       90.00    346.00      0.00
     90.00    107.00      0.00       90.00    227.00      0.00       90.00    347.00      0.00
     90.00    108.00      0.00       90.00    228.00      0.00       90.00    348.00      0.00
     90.00    109.00      0.00       90.00    229.00      0.00       90.00    349.00      0.00
     90.00    110.00      0.00       90.00    230.00      0.00       90.00    350.00      0.00
     90.00    111.00      0.00       90.00    231.00      0.00       90.00    351.00      0.00
     90.00    112.00      0.00       90.00    232.00      0.00       90.00    352.00      0.00
     90.00    113.00      0.00       90.00    233.00      0.00       90.00    353.00      0.00
     90.00    114.00      0.00       90.00    234.00      0.00       90.00    354.00      0.00
     90.00    115.00      0.00       90.00    235.00      0.00       90.00    355.00      0.00
     90.00    116.00      0.00       90.00    236.00      0.00       90.00    356.00      0.00
     90.00    117.00      0.00       90.00    237.00      0.00       90.00    357.00      0.00
     90.00    118.00      0.00       90.00    238.00      0.00       90.00    358.00      0.00
     90.00    119.00      0.00       90.00    239.00      0.00       90.00    359.00      0.00



*****  DATA CARD N0.   7 RP   0   360     1  1510 0.00000E+000 9.00000E+001 1.00000E+000 1.00000E+000 0.00000E+000 0.00000E+000


                             ---------- RADIATION PATTERNS -----------

 ---- ANGLES -----     --- DIRECTIVE GAINS ---      ---- POLARIZATION ----   ---- E(THETA) ----    ----- E(PHI) ------
  THETA      PHI       VERTC    HORIZ    TOTAL       AXIAL      TILT  SENSE   MAGNITUDE    PHASE    MAGNITUDE     PHASE
 DEGREES   DEGREES        DB       DB       DB       RATIO   DEGREES            VOLTS/M   DEGREES     VOLTS/M   DEGREES
    0.00     90.00   -999.99  -999.99  -999.99      0.0000      0.00        0.0000E+000      0.00 0.0000E+000    180.00
    1.00     90.00    -35.67  -999.99   -35.67      0.0000     -0.00 LINEAR 7.8010E-003     56.76 0.0000E+000    180.00
    2.00     90.00    -29.65  -999.99   -29.65      0.0000     -0.00 LINEAR 1.5605E-002     56.75 0.0000E+000    180.00
    3.00     90.00    -26.13  -999.99   -26.13      0.0000     -0.00 LINEAR 2.3413E-002     56.75 0.0000E+000    180.00
    4.00     90.00    -23.62  -999.99   -23.62      0.0000     -0.00 LINEAR 3.1229E-002     56.74 0.0000E+000    180.00
    5.00     90.00    -21.68  -999.99   -21.68      0.0000     -0.00 LINEAR 3.9054E-002     56.74 0.0000E+000    180.00
    6.00     90.00    -20.09  -999.99   -20.09      0.0000     -0.00 LINEAR 4.6892E-002     56.73 0.0000E+000    180.00
    7.00     90.00    -18.75  -999.99   -18.75      0.0000     -0.00 LINEAR 5.4744E-002     56.72 0.0000E+000    180.00
    8.00     90.00    -17.58  -999.99   -17.58      0.0000     -0.00 LINEAR 6.2613E-002     56.70 0.0000E+000    180.00
    9.00     90.00    -16.55  -999.99   -16.55      0.0000     -0.00 LINEAR 7.0501E-002     56.69 0.0000E+000    180.00
   10.00     90.00    -15.63  -999.99   -15.63      0.0000     -0.00 LINEAR 7.8409E-002     56.68 0.0000E+000    180.00
   11.00     90.00    -14.79  -999.99   -14.79      0.0000     -0.00 LINEAR 8.6341E-002     56.66 0.0000E+000    180.00
   12.00     90.00    -14.03  -999.99   -14.03      0.0000     -0.00 LINEAR 9.4297E-002     56.64 0.0000E+000    180.00
[...]
  295.00      0.00      0.95  -999.99     0.95      0.0000     -0.00 LINEAR 5.2899E-001   -125.15 0.0000E+000      0.00
  296.00      0.00      0.84  -999.99     0.84      0.0000     -0.00 LINEAR 5.2239E-001   -125.12 0.0000E+000      0.00
  297.00      0.00      0.73  -999.99     0.73      0.0000     -0.00 LINEAR 5.1562E-001   -125.10 0.0000E+000      0.00
  298.00      0.00      0.61  -999.99     0.61      0.0000     -0.00 LINEAR 5.0868E-001   -125.07 0.0000E+000      0.00
  299.00      0.00      0.49  -999.99     0.49      0.0000     -0.00 LINEAR 5.0158E-001   -125.04 0.0000E+000      0.00
  300.00      0.00      0.36  -999.99     0.36      0.0000     -0.00 LINEAR 4.9433E-001   -125.01 0.0000E+000      0.00
  301.00      0.00      0.23  -999.99     0.23      0.0000     -0.00 LINEAR 4.8694E-001   -124.98 0.0000E+000      0.00
  302.00      0.00      0.10  -999.99     0.10      0.0000     -0.00 LINEAR 4.7941E-001   -124.95 0.0000E+000      0.00
  303.00      0.00     -0.04  -999.99    -0.04      0.0000     -0.00 LINEAR 4.7176E-001   -124.91 0.0000E+000      0.00
  304.00      0.00     -0.19  -999.99    -0.19      0.0000     -0.00 LINEAR 4.6399E-001   -124.88 0.0000E+000      0.00
  305.00      0.00     -0.33  -999.99    -0.33      0.0000     -0.00 LINEAR 4.5610E-001   -124.85 0.0000E+000      0.00
  306.00      0.00     -0.49  -999.99    -0.49      0.0000     -0.00 LINEAR 4.4812E-001   -124.81 0.0000E+000      0.00
  307.00      0.00     -0.65  -999.99    -0.65      0.0000     -0.00 LINEAR 4.4003E-001   -124.78 0.0000E+000      0.00
  308.00      0.00     -0.81  -999.99    -0.81      0.0000     -0.00 LINEAR 4.3186E-001   -124.74 0.0000E+000      0.00
  309.00      0.00     -0.98  -999.99    -0.98      0.0000     -0.00 LINEAR 4.2361E-001   -124.70 0.0000E+000      0.00
  310.00      0.00     -1.15  -999.99    -1.15      0.0000     -0.00 LINEAR 4.1529E-001   -124.67 0.0000E+000      0.00
  311.00      0.00     -1.33  -999.99    -1.33      0.0000     -0.00 LINEAR 4.0690E-001   -124.63 0.0000E+000      0.00
  312.00      0.00     -1.51  -999.99    -1.51      0.0000     -0.00 LINEAR 3.9846E-001   -124.59 0.0000E+000      0.00
  313.00      0.00     -1.70  -999.99    -1.70      0.0000     -0.00 LINEAR 3.8996E-001   -124.55 0.0000E+000      0.00
  314.00      0.00     -1.89  -999.99    -1.89      0.0000     -0.00 LINEAR 3.8142E-001   -124.51 0.0000E+000      0.00
  315.00      0.00     -2.09  -999.99    -2.09      0.0000     -0.00 LINEAR 3.7283E-001   -124.48 0.0000E+000      0.00
  316.00      0.00     -2.29  -999.99    -2.29      0.0000     -0.00 LINEAR 3.6422E-001   -124.44 0.0000E+000      0.00
  317.00      0.00     -2.50  -999.99    -2.50      0.0000     -0.00 LINEAR 3.5558E-001   -124.40 0.0000E+000      0.00
  318.00      0.00     -2.71  -999.99    -2.71      0.0000     -0.00 LINEAR 3.4691E-001   -124.36 0.0000E+000      0.00
  319.00      0.00     -2.93  -999.99    -2.93      0.0000     -0.00 LINEAR 3.3824E-001   -124.32 0.0000E+000      0.00
  320.00      0.00     -3.16  -999.99    -3.16      0.0000     -0.00 LINEAR 3.2955E-001   -124.28 0.0000E+000      0.00
  321.00      0.00     -3.39  -999.99    -3.39      0.0000     -0.00 LINEAR 3.2085E-001   -124.24 0.0000E+000      0.00
  322.00      0.00     -3.63  -999.99    -3.63      0.0000     -0.00 LINEAR 3.1216E-001   -124.20 0.0000E+000      0.00
  323.00      0.00     -3.87  -999.99    -3.87      0.0000     -0.00 LINEAR 3.0346E-001   -124.16 0.0000E+000      0.00
  324.00      0.00     -4.13  -999.99    -4.13      0.0000     -0.00 LINEAR 2.9478E-001   -124.12 0.0000E+000      0.00
  325.00      0.00     -4.39  -999.99    -4.39      0.0000     -0.00 LINEAR 2.8610E-001   -124.08 0.0000E+000      0.00
  326.00      0.00     -4.65  -999.99    -4.65      0.0000     -0.00 LINEAR 2.7744E-001   -124.04 0.0000E+000      0.00
  327.00      0.00     -4.93  -999.99    -4.93      0.0000     -0.00 LINEAR 2.6880E-001   -124.00 0.0000E+000      0.00
  328.00      0.00     -5.21  -999.99    -5.21      0.0000     -0.00 LINEAR 2.6018E-001   -123.96 0.0000E+000      0.00
  329.00      0.00     -5.50  -999.99    -5.50      0.0000     -0.00 LINEAR 2.5158E-001   -123.93 0.0000E+000      0.00
  330.00      0.00     -5.80  -999.99    -5.80      0.0000     -0.00 LINEAR 2.4300E-001   -123.89 0.0000E+000      0.00
  331.00      0.00     -6.11  -999.99    -6.11      0.0000     -0.00 LINEAR 2.3446E-001   -123.85 0.0000E+000      0.00
  332.00      0.00     -6.44  -999.99    -6.44      0.0000     -0.00 LINEAR 2.2594E-001   -123.82 0.0000E+000      0.00
  333.00      0.00     -6.77  -999.99    -6.77      0.0000     -0.00 LINEAR 2.1746E-001   -123.78 0.0000E+000      0.00
  334.00      0.00     -7.11  -999.99    -7.11      0.0000     -0.00 LINEAR 2.0901E-001   -123.75 0.0000E+000      0.00
  335.00      0.00     -7.47  -999.99    -7.47      0.0000     -0.00 LINEAR 2.0059E-001   -123.71 0.0000E+000      0.00
  336.00      0.00     -7.84  -999.99    -7.84      0.0000     -0.00 LINEAR 1.9220E-001   -123.68 0.0000E+000      0.00
  337.00      0.00     -8.23  -999.99    -8.23      0.0000     -0.00 LINEAR 1.8386E-001   -123.65 0.0000E+000      0.00
  338.00      0.00     -8.63  -999.99    -8.63      0.0000     -0.00 LINEAR 1.7554E-001   -123.61 0.0000E+000      0.00
  339.00      0.00     -9.05  -999.99    -9.05      0.0000     -0.00 LINEAR 1.6727E-001   -123.58 0.0000E+000      0.00
  340.00      0.00     -9.49  -999.99    -9.49      0.0000     -0.00 LINEAR 1.5902E-001   -123.55 0.0000E+000      0.00
  341.00      0.00     -9.95  -999.99    -9.95      0.0000     -0.00 LINEAR 1.5082E-001   -123.53 0.0000E+000      0.00
  342.00      0.00    -10.43  -999.99   -10.43      0.0000     -0.00 LINEAR 1.4265E-001   -123.50 0.0000E+000      0.00
  343.00      0.00    -10.94  -999.99   -10.94      0.0000     -0.00 LINEAR 1.3451E-001   -123.47 0.0000E+000      0.00
  344.00      0.00    -11.48  -999.99   -11.48      0.0000     -0.00 LINEAR 1.2640E-001   -123.45 0.0000E+000      0.00
  345.00      0.00    -12.05  -999.99   -12.05      0.0000     -0.00 LINEAR 1.1833E-001   -123.42 0.0000E+000      0.00
  346.00      0.00    -12.66  -999.99   -12.66      0.0000     -0.00 LINEAR 1.1029E-001   -123.40 0.0000E+000      0.00
  347.00      0.00    -13.32  -999.99   -13.32      0.0000     -0.00 LINEAR 1.0228E-001   -123.38 0.0000E+000      0.00
  348.00      0.00    -14.03  -999.99   -14.03      0.0000     -0.00 LINEAR 9.4297E-002   -123.36 0.0000E+000      0.00
  349.00      0.00    -14.79  -999.99   -14.79      0.0000     -0.00 LINEAR 8.6341E-002   -123.34 0.0000E+000      0.00
  350.00      0.00    -15.63  -999.99   -15.63      0.0000     -0.00 LINEAR 7.8409E-002   -123.32 0.0000E+000      0.00
  351.00      0.00    -16.55  -999.99   -16.55      0.0000     -0.00 LINEAR 7.0501E-002   -123.31 0.0000E+000      0.00
  352.00      0.00    -17.58  -999.99   -17.58      0.0000     -0.00 LINEAR 6.2613E-002   -123.30 0.0000E+000      0.00
  353.00      0.00    -18.75  -999.99   -18.75      0.0000     -0.00 LINEAR 5.4744E-002   -123.28 0.0000E+000      0.00
  354.00      0.00    -20.09  -999.99   -20.09      0.0000     -0.00 LINEAR 4.6892E-002   -123.27 0.0000E+000      0.00
  355.00      0.00    -21.68  -999.99   -21.68      0.0000     -0.00 LINEAR 3.9054E-002   -123.26 0.0000E+000      0.00
  356.00      0.00    -23.62  -999.99   -23.62      0.0000     -0.00 LINEAR 3.1229E-002   -123.26 0.0000E+000      0.00
  357.00      0.00    -26.13  -999.99   -26.13      0.0000     -0.00 LINEAR 2.3413E-002   -123.25 0.0000E+000      0.00
  358.00      0.00    -29.65  -999.99   -29.65      0.0000     -0.00 LINEAR 1.5605E-002   -123.25 0.0000E+000      0.00
  359.00      0.00    -35.67  -999.99   -35.67      0.0000     -0.00 LINEAR 7.8010E-003   -123.24 0.0000E+000      0.00


                              ---------- NORMALIZED GAIN ----------
                                            TOTAL  GAIN
                                   NORMALIZATION FACTOR: 2.29 db

    ---- ANGLES ----                ---- ANGLES ----                ---- ANGLES ----
    THETA      PHI        GAIN      THETA      PHI        GAIN      THETA      PHI       GAIN
   DEGREES   DEGREES        DB     DEGREES   DEGREES        DB     DEGREES   DEGREES       DB
      0.00      0.00  -1002.28      120.00      0.00     -1.92      240.00      0.00     -1.92
      1.00      0.00    -37.96      121.00      0.00     -2.05      241.00      0.00     -1.79
      2.00      0.00    -31.94      122.00      0.00     -2.19      242.00      0.00     -1.67
      3.00      0.00    -28.41      123.00      0.00     -2.33      243.00      0.00     -1.56
      4.00      0.00    -25.91      124.00      0.00     -2.47      244.00      0.00     -1.44
      5.00      0.00    -23.97      125.00      0.00     -2.62      245.00      0.00     -1.33
      6.00      0.00    -22.38      126.00      0.00     -2.77      246.00      0.00     -1.23
      7.00      0.00    -21.03      127.00      0.00     -2.93      247.00      0.00     -1.13
      8.00      0.00    -19.87      128.00      0.00     -3.09      248.00      0.00     -1.03
      9.00      0.00    -18.84      129.00      0.00     -3.26      249.00      0.00     -0.94
     10.00      0.00    -17.91      130.00      0.00     -3.43      250.00      0.00     -0.85
     11.00      0.00    -17.08      131.00      0.00     -3.61      251.00      0.00     -0.77
     12.00      0.00    -16.31      132.00      0.00     -3.79      252.00      0.00     -0.69
     13.00      0.00    -15.61      133.00      0.00     -3.98      253.00      0.00     -0.62
     14.00      0.00    -14.95      134.00      0.00     -4.17      254.00      0.00     -0.55
     15.00      0.00    -14.34      135.00      0.00     -4.37      255.00      0.00     -0.48
     16.00      0.00    -13.77      136.00      0.00     -4.57      256.00      0.00     -0.42
     17.00      0.00    -13.23      137.00      0.00     -4.78      257.00      0.00     -0.36
     18.00      0.00    -12.72      138.00      0.00     -5.00      258.00      0.00     -0.31
     19.00      0.00    -12.23      139.00      0.00     -5.22      259.00      0.00     -0.26
     20.00      0.00    -11.77      140.00      0.00     -5.44      260.00      0.00     -0.21
     21.00      0.00    -11.33      141.00      0.00     -5.68      261.00      0.00     -0.17
     22.00      0.00    -10.91      142.00      0.00     -5.91      262.00      0.00     -0.14
     23.00      0.00    -10.51      143.00      0.00     -6.16      263.00      0.00     -0.10
     24.00      0.00    -10.13      144.00      0.00     -6.41      264.00      0.00     -0.08
     25.00      0.00     -9.76      145.00      0.00     -6.67      265.00      0.00     -0.05
     26.00      0.00     -9.40      146.00      0.00     -6.94      266.00      0.00     -0.03
     27.00      0.00     -9.05      147.00      0.00     -7.21      267.00      0.00     -0.02
     28.00      0.00     -8.72      148.00      0.00     -7.50      268.00      0.00     -0.01
     29.00      0.00     -8.40      149.00      0.00     -7.79      269.00      0.00     -0.00
     30.00      0.00     -8.09      150.00      0.00     -8.09      270.00      0.00     -0.00
     31.00      0.00     -7.79      151.00      0.00     -8.40      271.00      0.00     -0.00
     32.00      0.00     -7.50      152.00      0.00     -8.72      272.00      0.00     -0.01
     33.00      0.00     -7.21      153.00      0.00     -9.05      273.00      0.00     -0.02
     34.00      0.00     -6.94      154.00      0.00     -9.40      274.00      0.00     -0.03
     35.00      0.00     -6.67      155.00      0.00     -9.76      275.00      0.00     -0.05
     36.00      0.00     -6.41      156.00      0.00    -10.13      276.00      0.00     -0.08
     37.00      0.00     -6.16      157.00      0.00    -10.51      277.00      0.00     -0.10
     38.00      0.00     -5.91      158.00      0.00    -10.91      278.00      0.00     -0.14
     39.00      0.00     -5.68      159.00      0.00    -11.33      279.00      0.00     -0.17
     40.00      0.00     -5.44      160.00      0.00    -11.77      280.00      0.00     -0.21
     41.00      0.00     -5.22      161.00      0.00    -12.23      281.00      0.00     -0.26
     42.00      0.00     -5.00      162.00      0.00    -12.72      282.00      0.00     -0.31
     43.00      0.00     -4.78      163.00      0.00    -13.23      283.00      0.00     -0.36
     44.00      0.00     -4.57      164.00      0.00    -13.77      284.00      0.00     -0.42
     45.00      0.00     -4.37      165.00      0.00    -14.34      285.00      0.00     -0.48
     46.00      0.00     -4.17      166.00      0.00    -14.95      286.00      0.00     -0.55
     47.00      0.00     -3.98      167.00      0.00    -15.61      287.00      0.00     -0.62
     48.00      0.00     -3.79      168.00      0.00    -16.31      288.00      0.00     -0.69
     49.00      0.00     -3.61      169.00      0.00    -17.08      289.00      0.00     -0.77
     50.00      0.00     -3.43      170.00      0.00    -17.91      290.00      0.00     -0.85
     51.00      0.00     -3.26      171.00      0.00    -18.84      291.00      0.00     -0.94
     52.00      0.00     -3.09      172.00      0.00    -19.87      292.00      0.00     -1.03
     53.00      0.00     -2.93      173.00      0.00    -21.03      293.00      0.00     -1.13
     54.00      0.00     -2.77      174.00      0.00    -22.38      294.00      0.00     -1.23
     55.00      0.00     -2.62      175.00      0.00    -23.97      295.00      0.00     -1.33
     56.00      0.00     -2.47      176.00      0.00    -25.91      296.00      0.00     -1.44
     57.00      0.00     -2.33      177.00      0.00    -28.41      297.00      0.00     -1.56
     58.00      0.00     -2.19      178.00      0.00    -31.94      298.00      0.00     -1.67
     59.00      0.00     -2.05      179.00      0.00    -37.96      299.00      0.00     -1.79
     60.00      0.00     -1.92      180.00      0.00  -1002.28      300.00      0.00     -1.92
     61.00      0.00     -1.79      181.00      0.00    -37.96      301.00      0.00     -2.05
     62.00      0.00     -1.67      182.00      0.00    -31.94      302.00      0.00     -2.19
     63.00      0.00     -1.56      183.00      0.00    -28.41      303.00      0.00     -2.33
     64.00      0.00     -1.44      184.00      0.00    -25.91      304.00      0.00     -2.47
     65.00      0.00     -1.33      185.00      0.00    -23.97      305.00      0.00     -2.62
     66.00      0.00     -1.23      186.00      0.00    -22.38      306.00      0.00     -2.77
     67.00      0.00     -1.13      187.00      0.00    -21.03      307.00      0.00     -2.93
     68.00      0.00     -1.03      188.00      0.00    -19.87      308.00      0.00     -3.09
     69.00      0.00     -0.94      189.00      0.00    -18.84      309.00      0.00     -3.26
     70.00      0.00     -0.85      190.00      0.00    -17.91      310.00      0.00     -3.43
     71.00      0.00     -0.77      191.00      0.00    -17.08      311.00      0.00     -3.61
     72.00      0.00     -0.69      192.00      0.00    -16.31      312.00      0.00     -3.79
     73.00      0.00     -0.62      193.00      0.00    -15.61      313.00      0.00     -3.98
     74.00      0.00     -0.55      194.00      0.00    -14.95      314.00      0.00     -4.17
     75.00      0.00     -0.48      195.00      0.00    -14.34      315.00      0.00     -4.37
     76.00      0.00     -0.42      196.00      0.00    -13.77      316.00      0.00     -4.57
     77.00      0.00     -0.36      197.00      0.00    -13.23      317.00      0.00     -4.78
     78.00      0.00     -0.31      198.00      0.00    -12.72      318.00      0.00     -5.00
     79.00      0.00     -0.26      199.00      0.00    -12.23      319.00      0.00     -5.22
     80.00      0.00     -0.21      200.00      0.00    -11.77      320.00      0.00     -5.44
     81.00      0.00     -0.17      201.00      0.00    -11.33      321.00      0.00     -5.68
     82.00      0.00     -0.14      202.00      0.00    -10.91      322.00      0.00     -5.91
     83.00      0.00     -0.10      203.00      0.00    -10.51      323.00      0.00     -6.16
     84.00      0.00     -0.08      204.00      0.00    -10.13      324.00      0.00     -6.41
     85.00      0.00     -0.05      205.00      0.00     -9.76      325.00      0.00     -6.67
     86.00      0.00     -0.03      206.00      0.00     -9.40      326.00      0.00     -6.94
     87.00      0.00     -0.02      207.00      0.00     -9.05      327.00      0.00     -7.21
     88.00      0.00     -0.01      208.00      0.00     -8.72      328.00      0.00     -7.50
     89.00      0.00     -0.00      209.00      0.00     -8.40      329.00      0.00     -7.79
     90.00      0.00      0.00      210.00      0.00     -8.09      330.00      0.00     -8.09
     91.00      0.00     -0.00      211.00      0.00     -7.79      331.00      0.00     -8.40
     92.00      0.00     -0.01      212.00      0.00     -7.50      332.00      0.00     -8.72
     93.00      0.00     -0.02      213.00      0.00     -7.21      333.00      0.00     -9.05
     94.00      0.00     -0.03      214.00      0.00     -6.94      334.00      0.00     -9.40
     95.00      0.00     -0.05      215.00      0.00     -6.67      335.00      0.00     -9.76
     96.00      0.00     -0.08      216.00      0.00     -6.41      336.00      0.00    -10.13
     97.00      0.00     -0.10      217.00      0.00     -6.16      337.00      0.00    -10.51
     98.00      0.00     -0.14      218.00      0.00     -5.91      338.00      0.00    -10.91
     99.00      0.00     -0.17      219.00      0.00     -5.68      339.00      0.00    -11.33
    100.00      0.00     -0.21      220.00      0.00     -5.44      340.00      0.00    -11.77
    101.00      0.00     -0.26      221.00      0.00     -5.22      341.00      0.00    -12.23
    102.00      0.00     -0.31      222.00      0.00     -5.00      342.00      0.00    -12.72
    103.00      0.00     -0.36      223.00      0.00     -4.78      343.00      0.00    -13.23
    104.00      0.00     -0.42      224.00      0.00     -4.57      344.00      0.00    -13.77
    105.00      0.00     -0.48      225.00      0.00     -4.37      345.00      0.00    -14.34
    106.00      0.00     -0.55      226.00      0.00     -4.17      346.00      0.00    -14.95
    107.00      0.00     -0.62      227.00      0.00     -3.98      347.00      0.00    -15.61
    108.00      0.00     -0.69      228.00      0.00     -3.79      348.00      0.00    -16.31
    109.00      0.00     -0.77      229.00      0.00     -3.61      349.00      0.00    -17.08
    110.00      0.00     -0.85      230.00      0.00     -3.43      350.00      0.00    -17.91
    111.00      0.00     -0.94      231.00      0.00     -3.26      351.00      0.00    -18.84
    112.00      0.00     -1.03      232.00      0.00     -3.09      352.00      0.00    -19.87
    113.00      0.00     -1.13      233.00      0.00     -2.93      353.00      0.00    -21.03
    114.00      0.00     -1.23      234.00      0.00     -2.77      354.00      0.00    -22.38
    115.00      0.00     -1.33      235.00      0.00     -2.62      355.00      0.00    -23.97
    116.00      0.00     -1.44      236.00      0.00     -2.47      356.00      0.00    -25.91
    117.00      0.00     -1.56      237.00      0.00     -2.33      357.00      0.00    -28.41
    118.00      0.00     -1.67      238.00      0.00     -2.19      358.00      0.00    -31.94
    119.00      0.00     -1.79      239.00      0.00     -2.05      359.00      0.00    -37.96



*****  DATA CARD N0.   9 XQ   0     0     0     0 0.00000E+000 0.00000E+000 0.00000E+000 0.00000E+000 0.00000E+000 0.00000E+000
*****  DATA CARD N0.  10 EN   0     0     0     0 0.00000E+000 0.00000E+000 0.00000E+000 0.00000E+000 0.00000E+000 0.00000E+000

  TOTAL RUN TIME: 318 msec